78

C    5.7376     2.5451     2.9670 
C    4.9264     1.4329     2.9505 
H    5.0748     0.6555     3.6894 
C    3.8536     1.3013     2.0552 
H    3.2451     0.4068     2.0567 
C    3.5480     2.3646     1.2593 
H    2.6700     2.3459     0.6242 
C    4.3654     3.5188     1.2284 
C    3.9589     4.6032     0.4135 
H    3.0232     4.5267    -0.1273 
C    4.7396     5.7094     0.3359 
H    4.4356     6.5656    -0.2530 
C    6.0111     5.7009     0.9488 
H    6.6410     6.5470     0.7202 
C    6.5144     4.6758     1.7222 
C    5.5729     3.5948     1.9942 
C    5.4215     2.8844     5.7932 
H    4.9483     1.9035     5.8884 
C    4.3621     3.9138     5.4021 
H    3.6580     4.0518     6.2252 
H    3.8034     3.6064     4.5184 
H    4.8223     4.8824     5.1887 
C    6.0800     3.2736     7.1177 
H    6.4906     4.2838     7.0492 
H    6.8942     2.6041     7.3985 
H    5.3445     3.2644     7.9245 
C    7.6433     1.1854     4.7583 
H    7.7018     0.7478     3.7579 
C    6.9797     0.1720     5.6902 
H    7.5944    -0.7295     5.7348 
H    5.9855    -0.1264     5.3621 
H    6.8928     0.5563     6.7072 
C    9.0664     1.4871     5.2320 
H    9.0574     1.9836     6.2061 
H    9.5926     2.1328     4.5267 
H    9.6378     0.5617     5.3343 
P    6.7271     2.7999     4.4822 
B    8.1873     4.6555     1.9145 
C    8.9334     5.8590     1.0961 
C   10.3511     6.2840     1.5287 
C    8.9540     5.5975    -0.4206 
H    8.3467     6.7723     1.2599 
C   10.8573     7.4844     0.7225 
H   11.0602     5.4575     1.4180 
H   10.3591     6.5739     2.5791 
C    9.4260     6.8082    -1.2216 
H    9.6432     4.7703    -0.6231 
H    7.9732     5.2697    -0.7727 
C   10.8245     7.2269    -0.7798 
H   11.8692     7.7488     1.0402 
H   10.2208     8.3481     0.9461 
H    9.4156     6.5860    -2.2915 
H    8.7312     7.6411    -1.0626 
H   11.1559     8.1133    -1.3258 
H   11.5285     6.4228    -1.0227 
C    8.7473     3.1229     1.6913 
C    8.1854     2.4428     0.4217 
C   10.2696     2.8828     1.6946 
H    8.3632     2.5151     2.5227 
C    8.5046     0.9493     0.3803 
H    8.6202     2.9125    -0.4651 
H    7.1078     2.5818     0.3423 
C   10.6182     1.3925     1.6563 
H   10.7148     3.3678     0.8193 
H   10.7526     3.3286     2.5658 
C   10.0089     0.7056     0.4390 
H    8.0820     0.4969    -0.5201 
H    8.0219     0.4589     1.2349 
H   11.7027     1.2570     1.6664 
H   10.2319     0.9130     2.5643 
H   10.2295    -0.3644     0.4526 
H   10.4699     1.1131    -0.4676 
C    9.5220     5.1059     4.3441 
H   10.3902     4.7757     3.7869 
H    9.6810     6.1196     4.7072 
H    9.3542     4.4370     5.1910 
O    8.3526     5.0923     3.5199 
H    7.6988     4.4772     3.9848 














 
