75

C    5.6753     2.5896     2.6531 
C    4.8609     1.4783     2.6824 
H    5.0092     0.7107     3.4312 
C    3.7903     1.3307     1.7863 
H    3.1768     0.4407     1.8161 
C    3.5055     2.3595     0.9374 
H    2.6396     2.3121     0.2874 
C    4.3301     3.5061     0.8655 
C    3.9818     4.5507    -0.0213 
H    3.0729     4.4616    -0.6038 
C    4.7917     5.6381    -0.1228 
H    4.5307     6.4597    -0.7781 
C    6.0225     5.6629     0.5661 
H    6.6742     6.4978     0.3533 
C    6.4592     4.6724     1.4218 
C    5.5135     3.6118     1.6615 
C    5.3297     3.1526     5.4363 
H    4.7209     2.2428     5.4115 
C    4.4690     4.3310     4.9714 
H    3.7131     4.5355     5.7307 
H    3.9649     4.1313     4.0267 
H    5.0772     5.2311     4.8566 
C    5.8343     3.3834     6.8630 
H    6.2223     4.3930     6.9704 
H    6.6303     2.7037     7.1591 
H    4.9933     3.2543     7.5465 
C    7.5153     1.2309     4.5621 
H    7.5736     0.7525     3.5799 
C    6.7721     0.2982     5.5230 
H    7.3136    -0.6478     5.5650 
H    5.7498     0.0770     5.2213 
H    6.7455     0.7049     6.5324 
C    8.9386     1.4877     5.0612 
H    8.9341     1.9826     6.0317 
H    9.5078     2.1085     4.3696 
H    9.4500     0.5286     5.1557 
P    6.6182     2.8039     4.1739 
B    8.0774     4.6144     1.8105 
C    8.9049     5.8733     1.1666 
C   10.2354     6.2460     1.8485 
C    9.1566     5.7777    -0.3463 
H    8.2795     6.7637     1.3324 
C   10.7872     7.5636     1.3006 
H   10.9841     5.4667     1.6819 
H   10.0991     6.3241     2.9275 
C    9.6969     7.0870    -0.9205 
H    9.8979     4.9913    -0.5309 
H    8.2553     5.4736    -0.8853 
C   10.9846     7.5020    -0.2124 
H   11.7307     7.8150     1.7920 
H   10.0834     8.3698     1.5369 
H    9.8704     6.9939    -1.9958 
H    8.9438     7.8729    -0.7875 
H   11.3394     8.4628    -0.5933 
H   11.7638     6.7650    -0.4388 
C    8.6618     3.1046     1.5059 
C    8.2955     2.5100     0.1365 
C   10.1702     2.9323     1.7322 
H    8.1950     2.4145     2.2301 
C    8.7190     1.0450     0.0215 
H    8.7905     3.0841    -0.6524 
H    7.2224     2.5957    -0.0503 
C   10.6000     1.4678     1.6390 
H   10.7124     3.4962     0.9670 
H   10.4693     3.3626     2.6933 
C   10.2122     0.8722     0.2877 
H    8.4623     0.6488    -0.9640 
H    8.1529     0.4552     0.7543 
H   11.6764     1.3716     1.8016 
H   10.1088     0.8914     2.4336 
H   10.4919    -0.1829     0.2379 
H   10.7745     1.3863    -0.4995 
O    8.1458     4.3690     5.5139 
O    8.2684     4.8769     3.3544 
C    7.8561     4.2271     4.3472 























 
