74

C     5.5920     2.5138     3.0425 
C     4.5088     1.7902     3.5003 
H     4.5574     1.2440     4.4284 
C     3.2944     1.7334     2.7971 
H     2.4759     1.1452     3.1893 
C     3.1696     2.4361     1.6385 
H     2.2390     2.4241     1.0830 
C     4.2418     3.2039     1.1299 
C     4.0409     3.9380    -0.0605 
H     3.0774     3.8772    -0.5518 
C     5.0458     4.7123    -0.5569 
H     4.8973     5.2929    -1.4591 
C     6.2884     4.7440     0.1007 
H     7.0679     5.3618    -0.3270 
C     6.5741     4.0249     1.2439 
C     5.5037     3.2536     1.8048 
C     6.8554     4.0917     5.2909 
H     6.1064     3.8164     6.0377 
C     6.3417     5.3351     4.5675 
H     6.1215     6.0970     5.3175 
H     5.4275     5.1300     4.0102 
H     7.0797     5.7302     3.8729 
C     8.1973     4.3277     5.9848 
H     9.0044     4.3818     5.2517 
H     8.4313     3.5453     6.7069 
H     8.1660     5.2779     6.5199 
C     6.7471     1.1526     5.4223 
H     6.2886     0.3634     4.8226 
C     5.8994     1.4035     6.6689 
H     5.7289     0.4610     7.1918 
H     4.9271     1.8461     6.4508 
H     6.4208     2.0674     7.3616 
C     8.1396     0.6477     5.8200 
H     8.7086     1.4041     6.3624 
H     8.7252     0.3470     4.9507 
H     8.0383    -0.2199     6.4740 
P     6.9530     2.5863     4.2403 
B     8.0773     4.0086     1.8411 
C     8.9106     5.4070     1.5697 
C     9.8428     5.8139     2.7230 
C     9.7213     5.4709     0.2630 
H     8.1577     6.2103     1.5032 
C    10.5016     7.1775     2.5086 
H    10.6242     5.0540     2.8482 
H     9.2839     5.8362     3.6619 
C    10.3482     6.8447     0.0253 
H    10.5294     4.7321     0.3091 
H     9.1112     5.1886    -0.5979 
C    11.2599     7.2322     1.1857 
H    11.1715     7.4151     3.3396 
H     9.7210     7.9471     2.5005 
H    10.9074     6.8532    -0.9140 
H     9.5519     7.5917    -0.0715 
H    11.6855     8.2263     1.0286 
H    12.1005     6.5299     1.2258 
C     8.7870     2.5738     1.4530 
C     8.8856     2.2470    -0.0455 
C    10.1583     2.3504     2.1055 
H     8.1262     1.7751     1.8405 
C     9.3984     0.8261    -0.2840 
H     9.5670     2.9471    -0.5367 
H     7.9095     2.3777    -0.5202 
C    10.6852     0.9327     1.8820 
H    10.8751     3.0628     1.6829 
H    10.1272     2.5784     3.1798 
C    10.7512     0.6067     0.3910 
H     9.4761     0.6199    -1.3546 
H     8.6750     0.1109     0.1244 
H    11.6693     0.8058     2.3411 
H    10.0109     0.2185     2.3717 
H    11.0952    -0.4193     0.2394 
H    11.4929     1.2620    -0.0795 
H     8.2121     2.2105     3.8015 
H     7.9143     3.9919     3.0818 










 
