79

C   3.4752    14.4355     4.3095 
H   4.4915    14.1999     4.6303 
H   2.9021    13.5105     4.3441 
C   3.5022    15.0283     2.8853 
H   2.4890    15.1042     2.5063 
H   4.0344    14.3270     2.2322 
C   2.4647    14.8278     7.0475 
H   1.7797    15.4839     7.5857 
H   1.9259    13.8996     6.8531 
C   3.7306    14.5606     7.8726 
H   4.3138    13.7667     7.4084 
H   3.4376    14.1724     8.8588 
C   1.2643    16.3159     4.8547 
C   1.0576    17.7117     4.8953 
C  -0.1026    18.2523     4.3545 
H  -0.2454    19.3275     4.3858 
C  -1.0861    17.4568     3.7815 
C  -0.8960    16.0840     3.7948 
H  -1.6658    15.4410     3.3816 
C   0.2538    15.4989     4.3178 
C   3.7136    17.7343     2.2365 
F   1.5111    16.8884     1.8900 
C   2.3609    17.9054     1.9076 
F   0.5172    19.2304     1.2837 
C   1.8103    19.1265     1.5605 
F   2.1112    21.4101     1.1359 
C   2.6208    20.2429     1.4780 
F   4.7655    21.1797     1.6045 
C   3.9774    20.1212     1.7258 
F   5.8104    18.8580     2.2554 
C   4.4931    18.8910     2.0835 
C   5.7666    16.3606     3.4188 
F   6.3967    14.5376     2.0560 
C   6.7020    15.4202     3.0125 
F   8.8534    14.4580     3.0865 
C   7.9886    15.3611     3.5246 
F   9.5865    16.2335     5.0100 
C   8.3633    16.2622     4.5028 
F   7.8177    18.0480     5.9147 
C   7.4525    17.2005     4.9617 
F   5.3631    18.1948     4.8409 
C   6.1874    17.2412     4.4090 
C   3.9439    17.1764     8.6296 
F   5.6081    18.4897     7.5914 
C   4.4739    18.4169     8.2789 
F   4.3931    20.7706     8.2206 
C   3.8655    19.6159     8.6000 
F   2.0955    20.7409     9.6483 
C   2.6876    19.6046     9.3277 
F   1.0225    18.3858    10.4436 
C   2.1365    18.3987     9.7249 
F   2.2048    16.0920     9.8144 
C   2.7664    17.2187     9.3711 
C   6.1882    15.7159     8.1328 
F   6.1952    14.3001     6.2311 
C   6.8594    14.9111     7.2154 
F   8.8082    13.9373     6.3282 
C   8.2289    14.7237     7.2258 
F  10.3033    15.2157     8.1972 
C   8.9947    15.3754     8.1766 
F   9.1055    16.8107    10.0268 
C   8.3774    16.1942     9.1079 
F   6.4700    17.1316    10.0056 
C   7.0043    16.3504     9.0690 
C   0.3426    13.9961     4.2538 
H  -0.6546    13.5689     4.1597 
H   0.9190    13.6718     3.3843 
H   0.8080    13.5693     5.1383 
C  -2.3053    18.0707     3.1558 
H  -3.1231    17.3537     3.0954 
H  -2.6447    18.9380     3.7219 
H  -2.0778    18.4075     2.1420 
C   2.0495    18.6597     5.5239 
H   2.2590    18.3807     6.5589 
H   3.0071    18.6555     5.0005 
H   1.6538    19.6748     5.5205 
P   2.8919    15.7336     5.4913 
B   4.6168    15.8274     8.1700 
B   4.2937    16.3922     2.8224 










 
