85

 C                  3.41298400   15.34260300    3.76490500
 H                  3.11086800   14.30487700    3.93638800
 H                  2.77664400   15.96019100    4.39778900
 C                  3.25036800   15.72866800    2.26715300
 H                  4.08252500   15.33390200    1.68764300
 H                  3.26318300   16.81449400    2.17730300
 C                  5.12775400   15.15047200    6.11287500
 H                  6.14989100   15.31980200    6.46266600
 H                  4.50150000   15.90357900    6.59418200
 C                  4.65183400   13.72308900    6.44890500
 H                  3.72116800   13.52804800    5.91035500
 H                  4.37077600   13.69371000    7.50343900
 C                  5.87044200   17.01326200    3.92637800
 C                  7.16958000   17.03531000    3.37870600
 C                  7.75678500   18.25431300    3.06311500
 H                  8.75875900   18.26176800    2.64862600
 C                  7.10067100   19.46047100    3.26727500
 C                  5.83082600   19.42414900    3.82456100
 H                  5.31119100   20.35693400    4.01490000
 C                  5.20444300   18.22906200    4.16285300
 C                  1.68401000   13.58131400    1.58239200
 F                  3.97836300   13.08322600    1.94247200
 C                  2.74303100   12.67183800    1.65665600
 F                  3.63752000   10.49800300    1.59086400
 C                  2.59714300   11.31127800    1.47107100
 F                  1.19138200    9.50718300    0.97148800
 C                  1.35030000   10.80129700    1.15686700
 F                 -0.91827000   11.17731100    0.70451000
 C                  0.27163700   11.66085100    1.02722000
 F                 -0.62696900   13.77636000    1.08886300
 C                  0.45185100   13.01429000    1.24037900
 C                  0.60485900   16.01542600    2.23359900
 F                  1.36630300   17.65935300    0.72916500
 C                  0.47566300   17.26366500    1.64135400
 F                 -0.66748500   19.30157800    1.32539500
 C                 -0.56806700   18.12552900    1.92907900
 F                 -2.51495900   18.55983900    3.16047700
 C                 -1.51612200   17.74656000    2.86410000
 F                 -2.31994500   16.15891500    4.39291800
 C                 -1.41647100   16.51452800    3.49119700
 F                 -0.30258800   14.49730800    3.78584700
 C                 -0.37020200   15.67439600    3.16090300
 C                  7.00323100   12.49750300    7.17814900
 F                  7.92296200   10.73378800    5.91455100
 C                  8.04257400   11.61189900    6.92347700
 F                 10.15751400   10.66089100    7.35699500
 C                  9.20680500   11.53783700    7.66106100
 F                 10.47996200   12.34500200    9.46535600
 C                  9.37237900   12.39035400    8.73915800
 F                  8.51106000   14.10649000   10.08217900
 C                  8.36774700   13.28465900    9.04794700
 F                  6.29830600   14.21450900    8.66769700
 C                  7.21566300   13.32155100    8.27384200
 C                  4.83539200   11.09066500    6.23104400
 F                  3.68090200   11.77736500    4.28121500
 C                  3.86497500   10.87000100    5.26081200
 F                  2.16076400    9.60757500    4.22924100
 C                  3.05878000    9.75054700    5.20144600
 F                  2.43202900    7.69266500    6.14747600
 C                  3.19459500    8.77502900    6.17346600
 F                  4.26875200    8.02124800    8.11292500
 C                  4.13416700    8.94750200    7.17226300
 F                  5.80342100   10.17082600    8.18851900
 C                  4.92859000   10.08584600    7.18369400
 C                  3.83074300   18.31722100    4.77581900
 H                  3.66062300   19.31929500    5.16558500
 H                  3.05097600   18.11981300    4.03577000
 H                  3.69938800   17.61340500    5.59484500
 C                  7.74170700   20.76338100    2.88281600
 H                  7.35849500   21.58512400    3.48655800
 H                  8.82384100   20.72028100    3.00221300
 H                  7.53365700   20.99540700    1.83597000
 C                  7.97087900   15.77925500    3.13348100
 H                  8.11893000   15.20890200    4.05292300
 H                  7.47187100   15.11912700    2.42229600
 H                  8.95196000   16.03323700    2.73613300
 P                  5.17854900   15.36020100    4.28130600
 B                  5.68016200   12.48818700    6.21852900
 B                  1.85655600   15.09992400    1.94064800
 O                  6.28833100   12.64072400    4.72475000
 H                  6.02308600   13.52152200    4.30186100
 C                  6.51139200   11.64004600    3.71615100
 H                  6.24173800   10.67115300    4.12247600
 H                  5.88759100   11.86941700    2.85520500
 H                  7.56585700   11.64391300    3.45149500