82

 C                  3.37740000   14.60900000    4.00020000
 H                  4.41550000   14.36660000    4.24480000
 H                  2.82830000   13.66990000    4.03740000
 C                  3.29150000   15.25870000    2.61260000
 H                  2.24890000   15.36850000    2.32060000
 H                  3.73870000   14.57410000    1.87560000
 C                  2.78310000   14.80430000    6.85780000
 H                  2.13210000   15.36700000    7.52870000
 H                  2.28760000   13.84880000    6.66970000
 C                  4.16740000   14.59260000    7.50030000
 H                  4.77150000   13.94820000    6.84680000
 H                  4.02690000   14.01190000    8.41520000
 C                  1.17420000   16.39550000    4.94680000
 C                  0.94060000   17.76640000    5.18440000
 C                 -0.28500000   18.31720000    4.83480000
 H                 -0.45760000   19.37150000    5.02100000
 C                 -1.29450000   17.55760000    4.25810000
 C                 -1.06840000   16.20070000    4.08230000
 H                 -1.86000000   15.58150000    3.67450000
 C                  0.14010000   15.60210000    4.42370000
 C                  3.54190000   17.75880000    1.50140000
 F                  1.26270000   17.34750000    2.02250000
 C                  2.18180000   18.04660000    1.36570000
 F                  0.40280000   19.32490000    0.50320000
 C                  1.70330000   19.07940000    0.57890000
 F                  2.15140000   20.83820000   -0.90150000
 C                  2.59380000   19.85830000   -0.13770000
 F                  4.80590000   20.33900000   -0.74880000
 C                  3.95240000   19.60240000   -0.05360000
 F                  5.71360000   18.38110000    0.78810000
 C                  4.39670000   18.57830000    0.75940000
 C                  5.51720000   16.76030000    3.06990000
 F                  6.15100000   14.54210000    2.55440000
 C                  6.43550000   15.71640000    3.12230000
 F                  8.52860000   14.82080000    3.72480000
 C                  7.68170000   15.83660000    3.71460000
 F                  9.21430000   17.16680000    4.88490000
 C                  8.04030000   17.04280000    4.29720000
 F                  7.49810000   19.26050000    4.82580000
 C                  7.16090000   18.11380000    4.26360000
 F                  5.11220000   19.00640000    3.66160000
 C                  5.93180000   17.95530000    3.65090000
 C                  4.26570000   17.14790000    8.55260000
 F                  5.70560000   18.80420000    7.64660000
 C                  4.63040000   18.47800000    8.37080000
 F                  4.31740000   20.79390000    8.69090000
 C                  3.93280000   19.54320000    8.91870000
 F                  2.14930000   20.30420000   10.24490000
 C                  2.82860000   19.29890000    9.71260000
 F                  1.41210000   17.74160000   10.74820000
 C                  2.45120000   17.99130000    9.96010000
 F                  2.78420000   15.72100000    9.72260000
 C                  3.17490000   16.95750000    9.39210000
 C                  6.45050000   15.50240000    8.57700000
 F                  7.43720000   14.77620000    6.54320000
 C                  7.52300000   14.96070000    7.88700000
 F                  9.70210000   14.07190000    7.73440000
 C                  8.71560000   14.57250000    8.46690000
 F                  9.99150000   14.34130000   10.42510000
 C                  8.86390000   14.70770000    9.83540000
 F                  7.94760000   15.34310000   11.89540000
 C                  7.81860000   15.22190000   10.58080000
 F                  5.67580000   16.06750000   10.73910000
 C                  6.64560000   15.60230000    9.94800000
 C                  0.26140000   14.11450000    4.21860000
 H                 -0.72890000   13.66440000    4.17520000
 H                  0.76730000   13.87790000    3.27990000
 H                  0.81070000   13.63490000    5.02670000
 C                 -2.58720000   18.19270000    3.83310000
 H                 -3.38830000   17.45750000    3.76990000
 H                 -2.88850000   18.97610000    4.52830000
 H                 -2.47540000   18.65120000    2.84790000
 C                  1.96360000   18.66250000    5.83820000
 H                  2.27860000   18.26400000    6.80570000
 H                  2.86310000   18.77050000    5.22900000
 H                  1.54390000   19.65320000    6.00520000
 P                  2.86040000   15.80010000    5.30760000
 B                  5.05220000   15.91000000    7.84410000
 B                  4.08750000   16.60010000    2.41350000
 O                  5.49090000   16.54190000    6.42850000
 H                  6.11240000   15.96470000    5.95520000
 H                  4.64750000   16.64110000    5.86650000
