86

P    2.9781     2.1577     3.0094 
B    0.0944     2.9333     4.1102 
C    1.4661     2.2671     1.9501 
C    1.4713     2.0022     0.5811 
H    2.3957     1.7398     0.0817 
C    0.3024     2.0474    -0.1677 
H    0.3351     1.8461    -1.2311 
C   -0.9048     2.3268     0.4547 
H   -1.8238     2.3436    -0.1173 
C   -0.9282     2.5572     1.8222 
H   -1.8778     2.7394     2.3155 
C    0.2439     2.5584     2.5851 
C    0.9395     4.1017     4.7431 
C    1.5879     3.9199     5.9814 
C    2.3200     4.9604     6.5419 
H    2.8295     4.7969     7.4859 
C    2.4250     6.1990     5.9219 
C    1.7640     6.3805     4.7140 
H    1.8198     7.3463     4.2216 
C    1.0357     5.3583     4.1143 
C    0.3555     5.6544     2.7990 
H    0.3907     6.7222     2.5863 
H   -0.6910     5.3453     2.7976 
H    0.8336     5.1265     1.9700 
C    3.2642     7.2959     6.5134 
H    4.2724     7.2707     6.0914 
H    3.3541     7.1871     7.5939 
H    2.8422     8.2774     6.2974 
C    1.5375     2.6023     6.7116 
H    1.7808     1.7753     6.0415 
H    0.5438     2.4124     7.1218 
H    2.2541     2.5933     7.5323 
C   -1.0100     2.1805     4.9396 
C   -1.9591     2.8904     5.7003 
C   -2.9295     2.1996     6.4192 
H   -3.6632     2.7613     6.9881 
C   -2.9772     0.8125     6.4382 
C   -2.0274     0.1165     5.7009 
H   -2.0386    -0.9685     5.7153 
C   -1.0644     0.7716     4.9431 
C   -0.0732    -0.0672     4.1728 
H   -0.1016    -1.1007     4.5167 
H    0.9488     0.2996     4.2868 
H   -0.2965    -0.0584     3.1038 
C   -4.0412     0.0834     7.2098 
H   -4.4083     0.6846     8.0411 
H   -3.6646    -0.8601     7.6048 
H   -4.8930    -0.1464     6.5654 
C   -1.9690     4.3989     5.7688 
H   -2.9069     4.7523     6.1957 
H   -1.8543     4.8561     4.7853 
H   -1.1504     4.7713     6.3882 
C    3.9909     0.8861     2.1089 
H    4.1402     1.1784     1.0638 
C    3.2675    -0.4661     2.1436 
H    3.0900    -0.7395     3.1906 
H    2.2869    -0.3870     1.6696 
C    4.0933    -1.5623     1.4725 
H    3.5617    -2.5147     1.5264 
H    4.2102    -1.3243     0.4096 
C    5.4721    -1.6846     2.1149 
H    5.3546    -2.0120     3.1536 
H    6.0640    -2.4486     1.6068 
C    6.2023    -0.3450     2.0942 
H    6.4023    -0.0604     1.0553 
H    7.1713    -0.4313     2.5903 
C    5.3730     0.7526     2.7607 
H    5.9121     1.7001     2.7129 
H    5.2422     0.5181     3.8234 
C    3.7948     3.7898     2.5978 
H    2.9496     4.4859     2.6024 
C    4.7311     4.2420     3.7251 
H    4.1939     4.2069     4.6751 
H    5.5774     3.5520     3.8102 
C    5.2581     5.6529     3.4663 
H    4.4153     6.3528     3.5027 
H    5.9501     5.9455     4.2597 
C    5.9372     5.7524     2.1027 
H    6.8222     5.1060     2.0936 
H    6.2882     6.7710     1.9243 
C    4.9894     5.3151     0.9888 
H    5.4882     5.3710     0.0187 
H    4.1386     6.0043     0.9501 
C    4.4690     3.8969     1.2303 
H    5.3110     3.1987     1.1731 
H    3.7673     3.6191     0.4401 







 
