91

P        2.310994000      2.452624000      2.913325000
B       -0.723021000      2.669064000      4.082930000
C        0.766952000      2.335314000      1.905601000
C        0.808904000      2.148117000      0.523871000
H        1.760021000      2.088342000      0.010956000
C       -0.353047000      2.018170000     -0.225431000
H       -0.289930000      1.885215000     -1.298037000
C       -1.585671000      2.034832000      0.407958000
H       -2.496850000      1.912142000     -0.163575000
C       -1.639286000      2.185435000      1.785318000
H       -2.602286000      2.165666000      2.285213000
C       -0.483558000      2.367017000      2.552964000
C       -0.076066000      3.933534000      4.752849000
C        0.548069000      3.825819000      6.014557000
C        1.190107000      4.925623000      6.568205000
H        1.714462000      4.808857000      7.510385000
C        1.195660000      6.162841000      5.935763000
C        0.519892000      6.282355000      4.728855000
H        0.484384000      7.249138000      4.236550000
C       -0.099215000      5.193435000      4.123146000
C       -0.794943000      5.427373000      2.802554000
H       -0.906884000      6.495772000      2.620833000
H       -1.787438000      4.975793000      2.773669000
H       -0.235682000      4.999521000      1.966280000
C        1.945821000      7.322034000      6.526603000
H        3.017791000      7.205749000      6.347443000
H        1.799582000      7.379277000      7.605547000
H        1.632448000      8.266285000      6.082311000
C        0.539700000      2.541388000      6.805109000
H        0.780105000      1.671237000      6.193514000
H       -0.447945000      2.357771000      7.234746000
H        1.262513000      2.597717000      7.617599000
C       -1.708068000      1.722912000      4.860670000
C       -2.793809000      2.247919000      5.585093000
C       -3.658293000      1.390069000      6.257916000
H       -4.499589000      1.808395000      6.800680000
C       -3.465322000      0.015438000      6.264336000
C       -2.379730000     -0.495876000      5.563146000
H       -2.202848000     -1.566520000      5.570418000
C       -1.515586000      0.327097000      4.852109000
C       -0.359836000     -0.309910000      4.118557000
H       -0.219954000     -1.339527000      4.445977000
H        0.578225000      0.224487000      4.286665000
H       -0.532948000     -0.315490000      3.040296000
C       -4.415459000     -0.898707000      6.986030000
H       -4.943028000     -0.372357000      7.780846000
H       -3.889289000     -1.747334000      7.423271000
H       -5.164090000     -1.296179000      6.296834000
C       -3.056473000      3.732419000      5.664541000
H       -4.051921000      3.922235000      6.064380000
H       -2.988084000      4.214513000      4.688342000
H       -2.328455000      4.226325000      6.311757000
C        3.494479000      1.392234000      1.951793000
H        3.551756000      1.730301000      0.911772000
C        3.002881000     -0.061418000      1.975104000
H        2.919468000     -0.384962000      3.019808000
H        2.003097000     -0.133060000      1.541480000
C        3.966464000     -0.990803000      1.239546000
H        3.600510000     -2.018363000      1.288051000
H        3.995107000     -0.713862000      0.179997000
C        5.373484000     -0.897419000      1.822535000
H        5.356567000     -1.259705000      2.856001000
H        6.059436000     -1.542713000      1.270242000
C        5.871742000      0.544527000      1.808065000
H        5.971396000      0.881081000      0.770206000
H        6.864374000      0.609926000      2.258178000
C        4.907742000      1.475113000      2.544512000
H        5.282521000      2.498545000      2.502848000
H        4.871546000      1.192979000      3.602410000
C        2.850385000      4.208170000      2.602089000
H        1.912553000      4.766554000      2.674808000
C        3.746960000      4.716932000      3.738684000
H        3.253257000      4.548096000      4.698164000
H        4.681525000      4.147030000      3.768149000
C        4.069931000      6.199215000      3.555894000
H        3.144266000      6.776411000      3.662567000
H        4.745426000      6.531410000      4.347345000
C        4.678457000      6.476195000      2.183622000
H        5.641107000      5.958370000      2.104680000
H        4.882581000      7.542318000      2.065017000
C        3.756456000      5.986282000      1.070147000
H        4.202397000      6.176092000      0.091374000
H        2.817123000      6.549141000      1.107656000
C        3.449357000      4.495909000      1.225080000
H        4.377687000      3.930353000      1.093295000
H        2.762030000      4.173697000      0.438854000
C        3.836707000      1.671295000      6.678513000
O        3.849104000      2.865756000      6.758638000
O        3.266970000      0.964947000      5.711172000
H        4.306127000      1.004026000      7.413503000
H        2.854096000      1.570942000      5.046966000
















































