36

 C                  1.94293100   -0.29177800   -1.55599400
 C                  2.79134100    2.15321500   -1.14937700
 C                  1.65903200    2.29204300   -2.18067200
 H                  2.38178700   -0.50005700   -2.54700900
 H                  2.48350600    2.58135700   -0.18742000
 H                  3.70241200    2.69414200   -1.41970400
 H                  1.11494200    3.23542500   -2.12276900
 H                  2.05921000    2.23202800   -3.19547800
 P                  0.51176500    0.84309400   -2.01793800
 B                  3.00516700    0.62954400   -0.86319600
 C                  4.16731000    0.07701100    0.04819700
 C                  4.90947300   -1.03963900   -0.31655500
 C                  4.52025600    0.66985100    1.25437300
 C                  5.93686300   -1.54836100    0.45672000
 C                  5.52627500    0.17851000    2.06728000
 C                  6.24014000   -0.93605700    1.66108600
 F                  3.86458500    1.74747700    1.68760700
 F                  5.81804700    0.76345900    3.22124100
 F                  7.21363900   -1.41165200    2.41915200
 F                  6.63151500   -2.60638200    0.06035400
 F                  4.66724500   -1.64827200   -1.48050900
 C                  1.56582000   -1.61657100   -0.89784000
 H                  1.19403200   -1.45592700    0.11474100
 H                  0.78801300   -2.13727500   -1.45966700
 H                  2.42755700   -2.28106300   -0.83612500
 C                 -0.25976900    1.13935700   -0.37473700
 C                 -1.05781700    0.11544300    0.14548500
 C                 -0.18636300    2.33661000    0.33681900
 C                 -1.71760500    0.26362700    1.35519300
 H                 -1.17328800   -0.80646400   -0.41347900
 C                 -0.85931500    2.49403800    1.54199900
 H                  0.38952700    3.16777300   -0.04882400
 C                 -1.61753600    1.45574500    2.06076300
 H                 -2.32275200   -0.54691400    1.74073600
 H                 -0.78799100    3.43318900    2.07570800
 H                 -2.13814400    1.57797600    3.00154500

