40

C        2.120032000      0.057480000      0.394490000
C        3.271893000      2.309430000     -0.330595000
C        1.754808000      2.667546000     -0.379812000
H        1.967973000     -0.999233000      0.174064000
H        3.679725000      2.634573000      0.625619000
H        3.808486000      2.852299000     -1.108440000
H        1.383515000      3.143620000      0.528521000
H        1.467424000      3.295154000     -1.223461000
P        1.014160000      1.029763000     -0.580856000
B        3.399540000      0.680709000     -0.555155000
C        4.813161000     -0.030504000     -0.214870000
C        4.938820000     -1.412122000     -0.302222000
C        5.972888000      0.635733000      0.150302000
C        6.114179000     -2.094282000     -0.044304000
C        7.172098000     -0.006594000      0.419997000
C        7.242765000     -1.382350000      0.322009000
F        5.995281000      1.970827000      0.250974000
F        8.254059000      0.686902000      0.765485000
F        8.381335000     -2.016173000      0.575776000
F        6.173500000     -3.420282000     -0.140493000
F        3.885342000     -2.164051000     -0.645777000
C        2.187171000      0.344370000      1.886752000
H        2.267497000      1.414089000      2.090199000
H        1.324621000     -0.041779000      2.433584000
H        3.080347000     -0.126231000      2.302324000
C       -0.770443000      0.977125000     -0.414375000
C       -1.581676000      0.599084000     -1.481820000
C       -1.345945000      1.316456000      0.811141000
C       -2.959809000      0.561719000     -1.323507000
H       -1.142015000      0.334621000     -2.435588000
C       -2.721815000      1.275239000      0.964098000
H       -0.716713000      1.609574000      1.644000000
C       -3.527834000      0.898134000     -0.103349000
H       -3.588789000      0.268887000     -2.153591000
H       -3.166762000      1.536096000      1.915094000
H       -4.602653000      0.866704000      0.018094000
C        1.647826000      0.492074000     -2.212442000
O        3.008633000      0.332610000     -1.962154000
H        1.174597000     -0.444761000     -2.531103000
H        1.440359000      1.260813000     -2.966922000







































