72

B    0.7099     0.0409    10.2902 
C   -0.5199    -0.6561    11.0682 
C   -0.3860    -2.0289    11.3136 
H    0.4877    -2.5419    10.9232 
C   -1.3214    -2.7531    12.0269 
H   -1.1766    -3.8131    12.1910 
C   -2.4481    -2.1143    12.5306 
H   -3.1924    -2.6646    13.0906 
C   -2.6040    -0.7598    12.3114 
H   -3.4725    -0.2528    12.7176 
C   -1.6487    -0.0272    11.5969 
C   -1.8776     1.4572    11.5580 
H   -1.1771     1.9842    12.2079 
H   -2.8786     1.6825    11.9139 
N   -1.7488     2.1854    10.2048 
C   -2.2689     1.4114     8.9760 
H   -2.1203     0.3525     9.1833 
C   -3.7887     1.7736     8.9003 
C   -3.7936     3.1321     9.5556 
C   -4.7939     4.0911     9.5537 
H   -5.7018     3.9350     8.9845 
C   -4.6143     5.2528    10.2925 
H   -5.3843     6.0128    10.2939 
C   -3.4549     5.4475    11.0348 
H   -3.3294     6.3552    11.6093 
C   -2.4435     4.4951    11.0450 
C   -2.6383     3.3625    10.2763 
C   -1.5290     1.7751     7.7080 
C   -1.3469     0.7606     6.7729 
H   -1.6922    -0.2405     7.0009 
C   -0.7435     1.0174     5.5515 
H   -0.6008     0.2100     4.8440 
C   -0.3201     2.3032     5.2465 
H    0.1630     2.5072     4.3002 
C   -0.5245     3.3265     6.1604 
H   -0.2067     4.3340     5.9274 
C   -1.1352     3.0708     7.3806 
H   -1.2899     3.8913     8.0685 
C   -4.6355     0.7775     9.7057 
H   -4.5711    -0.2149     9.2556 
H   -5.6796     1.0933     9.6977 
H   -4.3181     0.6933    10.7420 
C   -4.3366     1.8137     7.4734 
H   -4.2161     0.8443     6.9880 
H   -3.8425     2.5673     6.8632 
H   -5.4038     2.0370     7.5088 
C    1.0647    -0.6003     8.8268 
C    2.2148    -0.1787     8.1656 
F    3.0497     0.6742     8.7618 
C    2.5709    -0.5954     6.8967 
F    3.6824    -0.1554     6.3182 
C    1.7520    -1.4841     6.2218 
F    2.0567    -1.8785     4.9921 
C    0.5984    -1.9288     6.8319 
F   -0.2372    -2.7278     6.1689 
C    0.2775    -1.4789     8.1034 
F   -0.9151    -1.8934     8.5644 
C    1.9780     0.0101    11.3342 
C    2.9996    -0.9264    11.3123 
F    3.0303    -1.8833    10.3741 
C    4.0334    -0.9521    12.2342 
F    4.9901    -1.8711    12.1559 
C    4.0671    -0.0124    13.2472 
F    5.0480    -0.0216    14.1404 
C    3.0584     0.9300    13.3258 
F    3.0640     1.8279    14.3065 
C    2.0458     0.9120    12.3843 
F    1.0739     1.8301    12.5473 
H   -1.5371     4.6492    11.6093 
C   -0.2185     2.5435    10.0896 
O    0.0621     3.6961    10.1510 
O    0.5123     1.5348     9.9423 




























 
