74

B        0.392574000     -0.077528000     10.575084000
C       -0.678959000     -1.086117000     11.279930000
C       -0.267808000     -2.424356000     11.338557000
H        0.699041000     -2.685204000     10.918141000
C       -1.040756000     -3.429983000     11.887608000
H       -0.674973000     -4.448714000     11.901885000
C       -2.287582000     -3.125622000     12.417166000
H       -2.909170000     -3.896915000     12.852297000
C       -2.718360000     -1.813049000     12.392725000
H       -3.680473000     -1.562745000     12.826561000
C       -1.930844000     -0.794162000     11.843706000
C       -2.495936000      0.595857000     11.971451000
H       -1.800985000      1.269194000     12.472780000
H       -3.426816000      0.580871000     12.533468000
N       -2.796717000      1.288742000     10.654112000
C       -3.557261000      0.502052000      9.606236000
H       -3.468007000     -0.554022000      9.862268000
C       -5.042345000      0.988832000      9.740331000
C       -4.854084000      2.352249000     10.363542000
C       -5.756498000      3.394644000     10.500055000
H       -6.764810000      3.307289000     10.115017000
C       -5.342460000      4.561119000     11.132780000
H       -6.035551000      5.385031000     11.240084000
C       -4.045813000      4.690318000     11.619115000
H       -3.737871000      5.612411000     12.092811000
C       -3.130610000      3.651808000     11.491714000
C       -3.577868000      2.508374000     10.862158000
C       -2.934761000      0.728891000      8.247431000
C       -3.147097000     -0.237170000      7.266109000
H       -3.688971000     -1.142170000      7.515754000
C       -2.650649000     -0.066233000      5.985204000
H       -2.816253000     -0.830959000      5.238494000
C       -1.903532000      1.063697000      5.675331000
H       -1.492892000      1.187749000      4.681623000
C       -1.672499000      2.021706000      6.649644000
H       -1.083905000      2.900649000      6.422107000
C       -2.195575000      1.864406000      7.928074000
H       -2.003230000      2.644116000      8.657964000
C       -5.817017000      0.066694000     10.691322000
H       -5.908360000     -0.930825000     10.257229000
H       -6.819208000      0.462020000     10.862143000
H       -5.325574000     -0.027422000     11.659633000
C       -5.787900000      1.072498000      8.410926000
H       -5.856552000      0.092154000      7.938253000
H       -5.301429000      1.755717000      7.716204000
H       -6.804098000      1.425261000      8.592968000
C        0.636124000     -0.421561000      8.983097000
C        1.618034000      0.274358000      8.288422000
F        2.397003000      1.146350000      8.948269000
C        1.865967000      0.137015000      6.936999000
F        2.821559000      0.840010000      6.337270000
C        1.098026000     -0.749466000      6.202720000
F        1.297870000     -0.892705000      4.898033000
C        0.105133000     -1.463704000      6.839128000
F       -0.648904000     -2.310195000      6.139882000
C       -0.120074000     -1.276880000      8.195692000
F       -1.144447000     -1.979620000      8.699373000
C        1.749131000     -0.146092000     11.504843000
C        2.911884000     -0.838022000     11.202881000
F        3.045141000     -1.479739000     10.035698000
C        3.990193000     -0.935898000     12.069210000
F        5.079279000     -1.612784000     11.721635000
C        3.928944000     -0.327165000     13.308134000
F        4.951325000     -0.409407000     14.148817000
C        2.784507000      0.363570000     13.664783000
F        2.705345000      0.945490000     14.857216000
C        1.733267000      0.427615000     12.769341000
F        0.640558000      1.095015000     13.183591000
H       -2.107508000      3.748783000     11.828628000
C        0.477721000      2.479663000     10.693748000
O       -0.162586000      1.338886000     10.561401000
O       -0.091201000      3.536489000     10.595466000
H        1.550631000      2.390639000     10.902370000
H       -1.839946000      1.501584000     10.302616000





















