57

N    3.4743     3.1870     3.6999 
N    2.8067     2.1577     1.6498 
C    2.8548     3.1677     2.5319 
C    1.2314     4.5722     1.4424 
H    1.6275     5.2119     0.6453 
H    0.3922     5.1064     1.8939 
C    0.7490     3.2406     0.8560 
H    0.1186     2.7338     1.5895 
H    0.1481     3.4177    -0.0364 
C    1.9176     2.3167     0.5056 
H    1.5451     1.3297     0.2266 
H    2.4762     2.7142    -0.3479 
C    3.3338     0.8697     2.0777 
H    3.7059     0.3377     1.2003 
H    2.5340     0.2635     2.5216 
C    4.4662     1.0754     3.0852 
H    5.3121     1.5362     2.5707 
H    4.7892     0.1044     3.4614 
C    4.0431     1.9816     4.2451 
H    3.3226     1.4566     4.8873 
H    4.9077     2.2233     4.8655 
C    1.4728     4.4045     5.0456 
H    0.8424     5.3056     4.9991 
C    0.5591     3.2120     4.7381 
H    0.1070     3.3375     3.7506 
H    1.1608     2.2939     4.6890 
C   -0.5420     3.0172     5.7798 
H   -1.2136     3.8825     5.7544 
H   -1.1473     2.1397     5.5378 
C    0.0437     2.8885     7.1829 
H   -0.7527     2.7666     7.9206 
H    0.6623     1.9845     7.2316 
C    0.9059     4.1014     7.5195 
H    1.3361     3.9970     8.5186 
H    0.2708     4.9941     7.5390 
C    2.0088     4.3010     6.4814 
H    2.7061     3.4535     6.5388 
H    2.5911     5.1925     6.7272 
C    3.6675     5.8457     4.2093 
H    4.2102     5.6867     5.1547 
C    2.8963     7.1652     4.3463 
H    2.2983     7.3205     3.4371 
H    2.1862     7.1062     5.1754 
C    3.8167     8.3691     4.5478 
H    3.2334     9.2919     4.6031 
H    4.3304     8.2610     5.5098 
C    4.8612     8.4679     3.4393 
H    4.3547     8.6608     2.4866 
H    5.5292     9.3136     3.6191 
C    5.6555     7.1694     3.3237 
H    6.2260     7.0166     4.2469 
H    6.3828     7.2419     2.5107 
C    4.7229     5.9797     3.1054 
H    5.2999     5.0541     3.0287 
H    4.2114     6.1074     2.1434 
B    2.6882     4.5867     4.0006 
N    2.2367     4.3304     2.4482 






















 
