59

 C                 -0.63789800   -1.29438000   -0.65549800
 H                 -0.62890000   -0.20585700   -0.76539200
 H                 -0.77528900   -1.69384500   -1.66370200
 P                 -2.10819800   -1.87483600    0.31071800
 B                  0.78887900   -1.83717200   -0.05413200
 C                 -3.32492900   -2.40764500   -1.03726900
 C                 -3.50761500   -1.43918000   -2.20913400
 C                 -2.75681900   -3.71920900   -1.59733000
 C                 -4.68789500   -2.72040800   -0.41534300
 H                 -4.03963500   -0.53553600   -1.92454100
 H                 -2.55487500   -1.14622300   -2.65136600
 H                 -4.09399600   -1.93276800   -2.99030100
 H                 -2.60075400   -4.45856300   -0.80861600
 H                 -3.46013100   -4.13939200   -2.32128200
 H                 -1.81225500   -3.55989900   -2.11974100
 H                 -5.31612000   -3.22382900   -1.15567800
 H                 -4.59195600   -3.38014000    0.44993000
 H                 -5.21123000   -1.81713700   -0.10380800
 C                 -2.80170600   -0.38434600    1.23065000
 C                 -3.52043000    0.63705500    0.35024600
 C                 -3.75131700   -0.89413700    2.32205600
 C                 -1.63785100    0.32517200    1.92861400
 H                 -2.90073300    0.95229900   -0.49152000
 H                 -4.46547300    0.25656800   -0.03554000
 H                 -3.74604400    1.52481300    0.94835100
 H                 -3.23175100   -1.57310100    2.99980100
 H                 -4.11427600   -0.04355200    2.90595100
 H                 -4.61877100   -1.41463200    1.91957800
 H                 -2.04770700    1.11399600    2.56535900
 H                 -1.05656600   -0.34948900    2.55790700
 H                 -0.95592200    0.79016100    1.21842400
 C                  1.25536400   -1.13850500    1.31403100
 C                  1.70436600    0.18589300    1.25999100
 C                  1.23203600   -1.74640800    2.56995300
 C                  2.07373300    0.88209900    2.39950500
 H                  1.76129700    0.68388000    0.29610800
 C                  1.60456100   -1.05921600    3.72211200
 H                  0.91412300   -2.77804700    2.66529000
 C                  2.01768700    0.26089200    3.64280800
 H                  2.40985800    1.90889800    2.32244600
 H                  1.56964200   -1.55874300    4.68268500
 H                  2.30475700    0.79974100    4.53676000
 C                  1.99211400   -1.94474200   -1.12362200
 C                  1.85612600   -1.65029800   -2.48094100
 C                  3.25899400   -2.35842700   -0.69106300
 C                  2.92117500   -1.76987900   -3.36873100
 H                  0.90225800   -1.30671900   -2.86517700
 C                  4.32460100   -2.49779400   -1.56721100
 H                  3.40925000   -2.56674600    0.36393100
 C                  4.15753200   -2.20198200   -2.91527600
 H                  2.78354100   -1.52462000   -4.41469200
 H                  5.28983600   -2.82466700   -1.20036200
 H                  4.98814500   -2.29941300   -3.60285900
 C                  0.60196300   -4.45653900   -0.56958500
 H                  1.65994400   -4.69171100   -0.62950400
 H                  0.24747700   -4.13714600   -1.54807400
 H                  0.03785100   -5.31791200   -0.21775700
 O                  0.45476100   -3.39925100    0.38918800
 H                 -0.47939300   -3.35398600    0.72039200

