57

C       -0.545805000      0.012257000     -0.787392000
H       -0.755740000      1.040028000     -0.494783000
H       -0.484166000     -0.033690000     -1.872403000
P       -1.808807000     -1.060540000     -0.151474000
B        0.857705000     -0.568685000      0.022199000
C       -2.595808000     -2.175854000     -1.401457000
C       -3.688096000     -1.459027000     -2.196333000
C       -1.488220000     -2.631088000     -2.364609000
C       -3.174884000     -3.415028000     -0.705496000
H       -4.564710000     -1.244571000     -1.584888000
H       -3.325294000     -0.525236000     -2.630147000
H       -4.006674000     -2.107599000     -3.015837000
H       -0.633404000     -3.076552000     -1.852700000
H       -1.912920000     -3.381779000     -3.034931000
H       -1.113968000     -1.809817000     -2.974254000
H       -3.574991000     -4.083206000     -1.471545000
H       -2.409177000     -3.966313000     -0.158314000
H       -3.985837000     -3.174473000     -0.020971000
C       -2.980306000     -0.090969000      0.907221000
C       -3.606118000      1.064038000      0.117940000
C       -4.083202000     -0.974404000      1.493702000
C       -2.139776000      0.496345000      2.053754000
H       -2.848548000      1.726102000     -0.300413000
H       -4.248890000      0.719632000     -0.690081000
H       -4.219864000      1.653661000      0.803037000
H       -3.680982000     -1.852446000      2.002502000
H       -4.640102000     -0.391719000      2.230986000
H       -4.790889000     -1.303412000      0.732560000
H       -2.793759000      1.128555000      2.658667000
H       -1.719548000     -0.277600000      2.695005000
H       -1.311597000      1.107047000      1.691961000
C        1.764329000      0.683164000      0.479281000
C        2.612870000      1.351405000     -0.407771000
C        1.689699000      1.184737000      1.782133000
C        3.338355000      2.471702000     -0.024806000
H        2.722719000      0.979468000     -1.420989000
C        2.415911000      2.301789000      2.178885000
H        1.061322000      0.673691000      2.502727000
C        3.240704000      2.954500000      1.273730000
H        3.988891000      2.964661000     -0.737316000
H        2.342722000      2.660506000      3.198871000
H        3.809116000      3.824308000      1.578465000
C        1.617640000     -1.640506000     -0.934496000
C        1.814140000     -1.453183000     -2.306343000
C        2.121748000     -2.826062000     -0.390263000
C        2.465370000     -2.392423000     -3.096334000
H        1.447603000     -0.547852000     -2.782157000
C        2.766610000     -3.780085000     -1.168113000
H        2.003668000     -2.998216000      0.674913000
C        2.938873000     -3.568016000     -2.529459000
H        2.602198000     -2.208951000     -4.155381000
H        3.141017000     -4.688514000     -0.711402000
H        3.441892000     -4.306856000     -3.140402000
C       -0.741208000     -2.078489000      0.968395000
O        0.314878000     -1.242410000      1.249379000
H       -1.272382000     -2.381715000      1.875227000
H       -0.448022000     -2.985007000      0.420209000








































