76

 B                  1.52415800    0.97662600   -0.00462800
 P                 -0.42905300    1.31320200   -0.22298400
 C                 -1.08662800    1.70188700    1.51025200
 C                 -0.74484500    0.68413900    2.59950100
 C                 -0.45761000    3.04395200    1.90289600
 C                 -2.60415800    1.89929800    1.45986700
 H                 -1.13669700   -0.30933100    2.37826200
 H                  0.33566300    0.60391000    2.73417600
 H                 -1.17562400    1.00587300    3.55386400
 H                 -0.72732100    3.83067200    1.19566800
 H                 -0.81518400    3.33705000    2.89480300
 H                  0.62975500    2.97499500    1.94101400
 H                 -2.94814200    2.28812000    2.42343400
 H                 -2.88311500    2.61542200    0.68504500
 H                 -3.13785700    0.96756000    1.27472700
 C                 -1.37084900   -0.14243100   -0.98667900
 C                 -1.84015900   -1.29666600   -0.09815300
 C                 -2.61203400    0.45985300   -1.66646700
 C                 -0.46759000   -0.68884500   -2.09538600
 H                 -1.01895600   -1.84126800    0.36276800
 H                 -2.51447900   -0.96143700    0.68969300
 H                 -2.39477200   -2.01243800   -0.71402400
 H                 -2.32691600    1.24714000   -2.36469500
 H                 -3.13611200   -0.32432300   -2.22227600
 H                 -3.31272700    0.88462800   -0.94823400
 H                 -1.03750000   -1.38147600   -2.72268300
 H                 -0.08461600    0.11184800   -2.73442200
 H                  0.38860900   -1.21610700   -1.68505700
 C                  3.63687300    2.12104300    0.72728700
 C                  3.64196000    2.78609800    2.11111100
 C                  4.84082600    2.58851100   -0.09314600
 H                  3.79153000    1.06913700    0.93794800
 H                  2.75918400    2.48720300    2.67857000
 H                  4.52423700    2.45027800    2.66061600
 H                  3.67662700    3.87221300    2.07055200
 H                  4.89033800    2.09409900   -1.06361400
 H                  4.83502200    3.66416700   -0.26497100
 H                  5.75550600    2.34986100    0.45340800
 C                  1.90164600    3.43169300   -0.59920700
 C                  2.37547600    3.49998900   -2.05214800
 C                  2.21801500    4.72561200    0.14666500
 H                  0.81731300    3.37857400   -0.64931100
 H                  3.46135100    3.56591200   -2.13031800
 H                  2.03648400    2.61263900   -2.59058800
 H                  1.95011300    4.37857400   -2.54259600
 H                  1.83074200    4.71351700    1.16442800
 H                  3.28235500    4.95537400    0.18202000
 H                  1.72937100    5.54450800   -0.38397500
 C                  1.58736400   -1.34877000    0.92657000
 C                  2.27547600   -1.36184200    2.30088000
 C                  1.49448700   -2.77835300    0.39246700
 H                  0.56872700   -1.01099800    1.10838200
 H                  2.45714800   -0.34314100    2.64887900
 H                  1.63744300   -1.86349700    3.03211900
 H                  3.22946400   -1.88852000    2.27677000
 H                  0.95318000   -2.83794200   -0.55004900
 H                  2.47525900   -3.23293800    0.25567800
 H                  0.95697500   -3.38579400    1.12390200
 C                  3.37159600   -0.59432200   -0.73585400
 C                  3.12183100   -1.39122600   -2.02194200
 C                  4.53375100   -1.21840100    0.04367000
 H                  3.70274500    0.38873300   -1.06909600
 H                  2.37381600   -0.89785200   -2.64212600
 H                  4.05046000   -1.44956900   -2.59592300
 H                  2.79742500   -2.41124900   -1.82183500
 H                  4.75250600   -0.68948600    0.97083700
 H                  4.34328500   -2.26303300    0.29002200
 H                  5.43036300   -1.19188700   -0.57832400
 N                  2.14109500   -0.33388900    0.02823700
 N                  2.32960200    2.17301600    0.04799800
 C                  3.47230600    1.15160100   -4.36743900
 H                  3.83364500    1.03104700   -3.34658500
 H                  3.65746200    2.18489200   -4.67391200
 H                  4.03282600    0.47358800   -5.01718200
 O                  2.09212400    0.84482400   -4.35109100
 H                  1.72704800    0.98504600   -5.22803700

