73

 B                  1.75617300    0.87372200   -0.11772700
 P                 -0.17888200    1.18752200   -0.50712300
 C                 -0.96123700    1.70671900    1.13260700
 C                 -0.67941800    0.76642500    2.30508500
 C                 -0.36751600    3.08074100    1.46465500
 C                 -2.47289000    1.88153400    0.96780300
 H                 -1.05525200   -0.24193900    2.12694500
 H                  0.39221700    0.70155000    2.50575300
 H                 -1.16524500    1.14795900    3.20911100
 H                 -0.58743700    3.80928200    0.68142800
 H                 -0.79987700    3.44402500    2.40170800
 H                  0.71365400    3.02473200    1.58988100
 H                 -2.87939500    2.33709100    1.87572300
 H                 -2.70669000    2.53645000    0.12657300
 H                 -2.98746400    0.93266400    0.82033600
 C                 -1.08615600   -0.29413100   -1.26008200
 C                 -1.60108300   -1.40701200   -0.34440200
 C                 -2.29058000    0.27050900   -2.03337800
 C                 -0.12489200   -0.88502300   -2.29485500
 H                 -0.80629400   -1.93957700    0.17245700
 H                 -2.30365700   -1.03194600    0.39931300
 H                 -2.13799100   -2.14180100   -0.95274100
 H                 -1.98313700    1.03602500   -2.74683800
 H                 -2.76977900   -0.54199900   -2.58828300
 H                 -3.03923100    0.70688800   -1.37393000
 H                 -0.64548600   -1.64400300   -2.88622900
 H                  0.23194100   -0.11300700   -2.98312300
 H                  0.74138700   -1.34127700   -1.82403400
 C                  3.79174900    2.05243100    0.75858300
 C                  3.65457300    2.79339300    2.09503700
 C                  5.07345700    2.47840900    0.03990700
 H                  3.92042900    1.01230200    1.03867000
 H                  2.72732900    2.50750700    2.59429600
 H                  4.48662900    2.51049300    2.74345800
 H                  3.67350000    3.87580300    1.99206100
 H                  5.22324400    1.93268000   -0.89131500
 H                  5.08847300    3.54310100   -0.18865300
 H                  5.92615100    2.27328300    0.69012800
 C                  2.20946300    3.28493200   -0.81484700
 C                  2.82030400    3.25234700   -2.21735200
 C                  2.46715700    4.62906800   -0.13921800
 H                  1.13494400    3.24452100   -0.96052600
 H                  2.55412900    2.31576500   -2.71526100
 H                  2.43391000    4.08452800   -2.80956300
 H                  3.90737200    3.32891500   -2.19817600
 H                  1.98049700    4.69387700    0.83247100
 H                  3.52471400    4.85814700   -0.01565700
 H                  2.03716500    5.40412000   -0.77557600
 C                  1.73479000   -1.41996200    0.89756100
 C                  2.31543200   -1.39831600    2.32005700
 C                  1.67633200   -2.86087900    0.39074400
 H                  0.70733200   -1.07319600    0.99502700
 H                  2.47496300   -0.37144200    2.65447700
 H                  1.61921200   -1.87757100    3.01193800
 H                  3.26468200   -1.92960100    2.38493400
 H                  1.20460100   -2.94030300   -0.58725800
 H                  2.66345900   -3.31854700    0.33481500
 H                  1.08611600   -3.45272300    1.09357100
 C                  3.65183600   -0.70923800   -0.63642400
 C                  3.50285300   -1.52250000   -1.92741100
 C                  4.74000200   -1.32446300    0.24729900
 H                  4.01659700    0.26440100   -0.95716400
 H                  2.81065400   -1.02886500   -2.60941400
 H                  4.47239600   -1.59723700   -2.42425500
 H                  3.14481700   -2.53470700   -1.74549400
 H                  4.88736400   -0.77171000    1.17459000
 H                  4.52269000   -2.36117900    0.50383100
 H                  5.68369700   -1.31800500   -0.30081500
 N                  2.36059800   -0.43258900    0.01546400
 N                  2.55694700    2.06930300   -0.04996600
 O                 -0.51917200    3.52152200   -2.99562600
 H                 -0.53196300    2.88256200   -2.26163800
 H                  0.23658400    3.25778800   -3.52781000

