74

B        1.642177000      0.755854000     -0.098731000
P       -0.282488000      1.325774000     -0.299693000
C       -1.285947000      1.106040000      1.298114000
C       -1.961876000     -0.234787000      1.595902000
C       -0.340293000      1.473124000      2.443897000
C       -2.388785000      2.177393000      1.249406000
H       -2.665408000     -0.519751000      0.813946000
H       -1.263542000     -1.057871000      1.740784000
H       -2.533384000     -0.136527000      2.524314000
H        0.145183000      2.433975000      2.253106000
H       -0.906306000      1.564827000      3.375629000
H        0.430841000      0.715882000      2.589847000
H       -2.974394000      2.139668000      2.173370000
H       -1.961376000      3.176452000      1.159432000
H       -3.072871000      2.018516000      0.414806000
C       -0.992189000      0.278136000     -1.694657000
C       -0.843027000     -1.233356000     -1.548502000
C       -2.461245000      0.640766000     -1.922325000
C       -0.196545000      0.710691000     -2.934497000
H        0.212528000     -1.498628000     -1.535792000
H       -1.307156000     -1.616585000     -0.639498000
H       -1.308355000     -1.738635000     -2.401882000
H       -2.592240000      1.720702000     -2.017920000
H       -2.814608000      0.170775000     -2.845366000
H       -3.100652000      0.291725000     -1.111317000
H       -0.535909000      0.145550000     -3.807687000
H       -0.329019000      1.774461000     -3.142196000
H        0.873599000      0.519081000     -2.809759000
C        3.746979000      1.879334000      0.665177000
C        3.536611000      2.722642000      1.929392000
C        5.072738000      2.238940000     -0.002884000
H        3.844024000      0.859342000      1.025917000
H        2.583236000      2.469961000      2.394858000
H        4.334446000      2.507184000      2.643606000
H        3.549740000      3.792775000      1.733373000
H        5.256474000      1.640087000     -0.895253000
H        5.118234000      3.291684000     -0.282238000
H        5.884810000      2.054868000      0.702758000
C        2.312707000      2.968803000     -1.141193000
C        3.152099000      2.886402000     -2.422380000
C        2.377135000      4.362937000     -0.525416000
H        1.279613000      2.832374000     -1.459179000
H        3.154933000      1.865208000     -2.808555000
H        2.714929000      3.534959000     -3.184696000
H        4.184236000      3.201485000     -2.276800000
H        1.747374000      4.422941000      0.363499000
H        3.391873000      4.656574000     -0.255519000
H        2.017087000      5.092141000     -1.255358000
C        1.427136000     -1.505733000      0.975787000
C        1.960502000     -1.470131000      2.417672000
C        1.309211000     -2.965233000      0.533496000
H        0.417291000     -1.102875000      0.997934000
H        2.237660000     -0.455850000      2.708080000
H        1.194610000     -1.828766000      3.109483000
H        2.837268000     -2.106793000      2.538423000
H        0.897274000     -3.074700000     -0.466043000
H        2.265058000     -3.486621000      0.573449000
H        0.637916000     -3.474587000      1.228308000
C        3.420054000     -0.980147000     -0.522743000
C        3.222505000     -1.857294000     -1.764373000
C        4.448349000     -1.615574000      0.415806000
H        3.854887000     -0.053508000     -0.892249000
H        2.491635000     -1.404338000     -2.435873000
H        4.169190000     -1.946090000     -2.301476000
H        2.887555000     -2.863369000     -1.518533000
H        4.607804000     -1.024963000      1.317561000
H        4.160453000     -2.621813000      0.719098000
H        5.402770000     -1.695892000     -0.107652000
N        2.141601000     -0.581940000      0.092028000
N        2.562693000      1.860580000     -0.212409000
C       -0.819942000      5.252791000     -0.455461000
O       -1.015927000      5.517916000      0.696695000
H       -0.671968000      6.051103000     -1.206603000
H       -0.773778000      4.206741000     -0.808372000













