52

B    3.8887     7.6167     3.6146 
N    3.6261     7.1715     0.8560 
C    3.5457     8.5265     1.3744 
H    2.4960     8.6768     1.6529 
C    4.3930     8.7404     2.6589 
H    5.4412     8.6250     2.3860 
C    4.1251    10.2224     2.9297 
H    3.1541    10.3454     3.4155 
H    4.8729    10.6648     3.5859 
C    4.1058    10.8810     1.5219 
H    3.2807    11.5874     1.4385 
H    5.0212    11.4435     1.3429 
C    3.9640     9.7255     0.5071 
H    4.9235     9.5107     0.0324 
H    3.2428     9.9398    -0.2817 
C    2.5877     6.8576    -0.1168 
H    2.7810     7.3647    -1.0785 
H    1.6355     7.2275     0.2658 
C    2.5171     5.3531    -0.3417 
H    1.7443     5.1270    -1.0786 
H    2.2260     4.8800     0.6006 
C    3.8702     4.8132    -0.7955 
H    3.8417     3.7262    -0.8858 
H    4.0998     5.2105    -1.7901 
C    4.9653     5.2457     0.1748 
H    4.8100     4.7652     1.1465 
H    5.9488     4.9430    -0.1902 
C    4.9363     6.7559     0.3733 
H    5.7004     7.0505     1.0934 
H    5.1831     7.2492    -0.5823 
C    4.6463     6.2507     3.7885 
F    6.7924     7.2375     3.6037 
C    6.0344     6.1474     3.7207 
F    8.0306     4.8951     3.7362 
C    6.7069     4.9411     3.7958 
F    6.6088     2.6091     4.0086 
C    5.9831     3.7700     3.9401 
F    3.9084     2.6986     4.1531 
C    4.6019     3.8203     4.0190 
F    2.6367     5.0246     4.0156 
C    3.9644     5.0457     3.9526 
C    2.5318     7.8668     4.3999 
F    3.8280     8.8457     6.0881 
C    2.6182     8.5093     5.6231 
F    1.6424     9.4365     7.5603 
C    1.5124     8.8238     6.3913 
F   -0.8220     8.7830     6.6324 
C    0.2542     8.4914     5.9183 
F   -1.0816     7.5409     4.2414 
C    0.1244     7.8558     4.6952 
F    1.0842     6.9436     2.7855 
C    1.2581     7.5555     3.9588 







 
