58

B    3.8047     7.0863     3.5787 
N    3.3033     7.4423     0.5453 
C    3.6136     8.6238     1.4258 
H    2.6342     8.9501     1.7887 
C    4.4774     8.2395     2.6264 
H    5.4235     7.8593     2.2314 
C    4.7540     9.6319     3.1975 
H    3.8907     9.9741     3.7734 
H    5.6109     9.6376     3.8687 
C    4.9551    10.5514     1.9678 
H    4.4901    11.5251     2.1155 
H    6.0138    10.7290     1.7839 
C    4.3276     9.8018     0.7644 
H    5.1166     9.4415     0.1034 
H    3.6610    10.4307     0.1736 
C    2.1325     7.6599    -0.3444 
H    2.4338     8.3869    -1.1028 
H    1.3378     8.0905     0.2604 
C    1.7002     6.3442    -0.9699 
H    0.8485     6.5298    -1.6249 
H    1.3531     5.6805    -0.1718 
C    2.8496     5.6909    -1.7318 
H    2.5464     4.7147    -2.1105 
H    3.1062     6.3059    -2.6002 
C    4.0719     5.5562    -0.8286 
H    3.8670     4.8560    -0.0132 
H    4.9265     5.1645    -1.3810 
C    4.4563     6.8986    -0.2275 
H    5.2941     6.8016     0.4580 
H    4.7074     7.6181    -1.0078 
C    4.7699     6.5685     4.8231 
F    6.8184     7.3090     3.8609 
C    6.1515     6.6976     4.8541 
F    8.2741     6.3877     5.8412 
C    6.9540     6.2214     5.8800 
F    7.1278     5.0971     7.9380 
C    6.3776     5.5642     6.9480 
F    4.4323     4.7587     7.9836 
C    5.0058     5.3952     6.9663 
F    2.9262     5.6804     6.0204 
C    4.2483     5.8908     5.9198 
C    2.3641     7.6932     4.1583 
F    3.3998     8.7247     6.0175 
C    2.2929     8.4720     5.3071 
F    1.1309     9.7615     6.9061 
C    1.1250     9.0309     5.7964 
F   -1.1942     9.3626     5.5630 
C   -0.0631     8.8316     5.1161 
F   -1.1757     7.8968     3.2702 
C   -0.0494     8.0835     3.9561 
F    1.0610     6.8629     2.3431 
C    1.1483     7.5470     3.5106 
O    3.5630     5.9389     2.6494 
H    3.0976     6.6926     1.2665 
C    2.9861     4.7546     3.1398 
H    2.7671     4.0971     2.2956 
H    3.6734     4.2341     3.8132 
H    2.0560     4.9489     3.6814 
















 
