55

B    4.1671     7.1963     3.6508 
N    3.2290     6.9869     0.7659 
C    3.3963     8.3142     1.4911 
H    2.4437     8.4357     2.0163 
C    4.5239     8.2864     2.5147 
H    5.4514     8.0313     1.9949 
C    4.6187     9.7749     2.8488 
H    3.7611    10.0775     3.4566 
H    5.5211    10.0210     3.4042 
C    4.5566    10.4553     1.4716 
H    4.1939    11.4807     1.5203 
H    5.5558    10.4849     1.0358 
C    3.6368     9.5574     0.6095 
H    4.1155     9.3069    -0.3377 
H    2.6963    10.0511     0.3667 
C    2.1006     7.1267    -0.2285 
H    2.3094     8.0519    -0.7637 
H    1.1970     7.2613     0.3647 
C    1.9480     5.9962    -1.2359 
H    1.2229     6.3385    -1.9766 
H    1.5373     5.1144    -0.7522 
C    3.2767     5.6600    -1.8988 
H    3.1577     4.8112    -2.5716 
H    3.6227     6.5053    -2.5037 
C    4.3093     5.3501    -0.8244 
H    4.0017     4.4748    -0.2486 
H    5.2821     5.1230    -1.2627 
C    4.5074     6.5403     0.0981 
H    5.2124     6.3109     0.8927 
H    4.8838     7.3962    -0.4624 
C    5.4052     6.5328     4.4726 
F    7.0830     8.0067     3.6735 
C    6.7240     6.9523     4.4228 
F    8.9960     6.7932     5.0451 
C    7.7462     6.3470     5.1361 
F    8.4236     4.6751     6.6409 
C    7.4586     5.2697     5.9520 
F    5.8671     3.7903     6.8366 
C    6.1536     4.8196     6.0466 
F    3.9208     4.9933     5.4680 
C    5.1643     5.4555     5.3172 
C    3.0324     7.7831     4.6803 
F    4.7235     8.8346     5.9489 
C    3.4265     8.5543     5.7666 
F    2.9886     9.8148     7.7126 
C    2.5474     9.0899     6.6908 
F    0.3266     9.3832     7.4062 
C    1.1891     8.8752     6.5365 
F   -0.5617     7.9499     5.2785 
C    0.7417     8.1416     5.4547 
F    1.1366     6.9615     3.5084 
C    1.6616     7.6246     4.5562 
O    2.1057     5.0535     1.4855 
O    3.5483     5.9753     2.9017 
C    2.8848     5.8834     1.8295 

























 
