56

B    3.4143     7.6438     3.4370 
N    3.1768     7.4758     0.3829 
C    3.3030     8.7770     1.1699 
H    2.2862     8.9746     1.5154 
C    4.2147     8.6217     2.3890 
H    5.1366     8.1381     2.0489 
C    4.5682    10.0848     2.7480 
H    4.1760    10.3805     3.7192 
H    5.6491    10.2064     2.7982 
C    3.9683    10.9642     1.6257 
H    2.9862    11.3370     1.9247 
H    4.5850    11.8279     1.3827 
C    3.8046    10.0131     0.4351 
H    4.7840     9.8306    -0.0120 
H    3.1304    10.3933    -0.3349 
C    1.8176     7.4444    -0.2555 
H    1.7220     8.3839    -0.8043 
H    1.1047     7.4466     0.5686 
C    1.5997     6.2593    -1.1858 
H    0.6448     6.4172    -1.6888 
H    1.4892     5.3394    -0.6094 
C    2.7277     6.1064    -2.2005 
H    2.5852     5.2015    -2.7908 
H    2.7112     6.9502    -2.8974 
C    4.0758     6.0794    -1.4877 
H    4.1685     5.1843    -0.8687 
H    4.8950     6.0484    -2.2070 
C    4.2423     7.3380    -0.6513 
H    5.2009     7.3752    -0.1344 
H    4.1688     8.2097    -1.3018 
C    4.3682     6.7565     4.4378 
F    6.3634     7.9834     4.0728 
C    5.7209     6.9587     4.6561 
F    7.7915     6.4019     5.6509 
C    6.4925     6.1611     5.4863 
F    6.6213     4.3273     6.9517 
C    5.9004     5.1056     6.1529 
F    3.9675     3.8644     6.6325 
C    4.5476     4.8711     5.9839 
F    2.5100     5.4331     5.0471 
C    3.8172     5.6939     5.1435 
C    2.2979     8.4898     4.2954 
F    3.9374     9.1221     5.8774 
C    2.6628     9.1499     5.4634 
F    2.2052    10.4776     7.3615 
C    1.7869     9.8727     6.2541 
F   -0.4001    10.6624     6.6144 
C    0.4603     9.9714     5.8768 
F   -1.2230     9.4556     4.3275 
C    0.0470     9.3533     4.7133 
F    0.4582     8.1066     2.8244 
C    0.9608     8.6395     3.9525 
C    3.2869     6.3156     1.4309 
O    2.6627     6.6581     2.5605 
H    2.8181     5.4486     0.9692 
H    4.3661     6.1420     1.5318 























 
