91
AlSi4C23PH60O2
P        2.232584000      4.012997000      2.578878000
Si       3.247777000      8.410679000      0.403749000
Si       5.219927000      8.230436000      2.820118000
Si       1.903391000      6.951373000      6.618854000
Si       0.155781000      8.878094000      4.857011000
Al       2.268751000      7.006763000      3.298877000
O        2.657343000      5.289818000      3.470621000
C        1.716046000      7.868750000      4.994555000
H        2.497627000      8.648750000      5.034991000
C        3.431815000      8.221406000      2.249504000
H        3.062373000      9.186408000      2.640243000
C        3.344247000      5.737458000      6.691119000
H        4.270166000      6.268206000      6.919583000
H        3.167261000      5.022521000      7.499475000
H        3.493265000      5.182616000      5.766363000
C        0.311507000      6.044166000      7.060561000
H       -0.090864000      5.455976000      6.233964000
H        0.488892000      5.364798000      7.897546000
H       -0.460591000      6.752709000      7.369455000
C        2.270469000      8.158059000      8.018042000
H        1.454475000      8.850040000      8.222793000
H        2.480481000      7.602740000      8.935814000
H        3.160299000      8.748443000      7.783673000
C       -0.147540000     10.038301000      6.305804000
H        0.737227000     10.632876000      6.541919000
H       -0.959992000     10.726514000      6.058430000
H       -0.439881000      9.494618000      7.205789000
C       -1.390774000      7.797103000      4.728633000
H       -1.856942000      7.696592000      5.709924000
H       -2.132618000      8.239984000      4.059925000
H       -1.173368000      6.788397000      4.376743000
C        0.291313000      9.998205000      3.344098000
H        0.607138000      9.479032000      2.437321000
H       -0.656422000     10.500705000      3.135127000
H        1.038502000     10.773411000      3.536178000
C        5.404830000      7.416471000      4.505447000
H        6.452851000      7.413577000      4.814861000
H        4.837743000      7.955023000      5.269187000
H        5.054408000      6.381523000      4.505653000
C        5.815881000     10.003607000      3.013754000
H        5.774367000     10.551313000      2.071034000
H        5.197228000     10.538285000      3.738827000
H        6.846908000     10.029056000      3.373976000
C        6.416980000      7.353161000      1.660672000
H        7.411570000      7.377791000      2.113808000
H        6.157238000      6.308179000      1.497027000
H        6.490501000      7.834149000      0.685314000
C        1.554541000      9.067464000     -0.099547000
H        1.527625000      9.174855000     -1.187026000
H        0.727182000      8.421927000      0.187471000
H        1.377652000     10.056256000      0.329683000
C        3.534441000      6.790082000     -0.503078000
H        3.333174000      6.914489000     -1.569673000
H        4.568157000      6.455376000     -0.397782000
H        2.884196000      5.993540000     -0.130002000
C        4.409943000      9.710052000     -0.318097000
H        4.192872000     10.687961000      0.119274000
H        5.469047000      9.506767000     -0.164829000
H        4.239364000      9.789164000     -1.394878000
C        3.837373000      3.074087000      2.399672000
C        3.681112000      2.020477000      1.299419000
H        3.332041000      2.472724000      0.368995000
H        4.652530000      1.557499000      1.105813000
H        2.986296000      1.227652000      1.574049000
C        4.844968000      4.125576000      1.928347000
H        5.034216000      4.856568000      2.713742000
H        5.789659000      3.637319000      1.673586000
H        4.488648000      4.658208000      1.044036000
C        4.371755000      2.439514000      3.681499000
H        3.778942000      1.579651000      3.992609000
H        5.393356000      2.088200000      3.508584000
H        4.401065000      3.161679000      4.500082000
C        1.073452000      3.071180000      3.716804000
C        0.837529000      1.660704000      3.177133000
H        1.697808000      1.013209000      3.346272000
H       -0.017968000      1.213621000      3.690907000
H        0.615693000      1.668025000      2.106495000
C        1.493587000      3.030520000      5.184329000
H        1.697441000      4.033098000      5.555429000
H        0.675488000      2.614210000      5.780565000
H        2.373882000      2.416653000      5.356948000
C       -0.245716000      3.852310000      3.634045000
H       -0.644788000      3.855165000      2.616439000
H       -0.991063000      3.395655000      4.290624000
H       -0.104851000      4.886432000      3.960645000
O        0.801432000      6.554470000      2.050483000
H        1.035000000      5.646167000      1.724869000
C       -0.552546000      6.864243000      1.702783000
H       -0.674029000      6.768348000      0.624935000
H       -1.233113000      6.189205000      2.218940000
H       -0.753036000      7.886775000      2.005592000
