88
AlSi4C23PH56O3
P        2.271297000      4.155208000      2.970022000
Si       3.326521000      8.395686000      0.485952000
Si       5.344336000      8.251600000      2.901614000
Si       1.911294000      7.151001000      6.730522000
Si      -0.029437000      8.625225000      4.732519000
Al       2.377320000      7.026026000      3.374622000
O        2.929427000      5.294595000      3.772846000
C        1.658829000      7.860271000      5.013171000
H        2.304729000      8.756883000      5.035455000
C        3.562655000      8.215857000      2.335568000
H        3.177968000      9.181089000      2.714363000
C        3.385526000      5.990163000      6.939479000
H        4.307094000      6.558025000      7.076684000
H        3.235772000      5.388479000      7.840447000
H        3.538670000      5.320022000      6.095026000
C        0.409773000      6.216075000      7.388227000
H        0.224436000      5.275059000      6.868171000
H        0.596609000      5.974348000      8.437864000
H       -0.505298000      6.808800000      7.345720000
C        2.247492000      8.556790000      7.936403000
H        1.404533000      9.240605000      8.035830000
H        2.475932000      8.154830000      8.926655000
H        3.113893000      9.137940000      7.609867000
C       -0.590170000      9.716196000      6.160676000
H        0.144139000     10.496496000      6.372170000
H       -1.529616000     10.206235000      5.893177000
H       -0.759378000      9.156573000      7.082244000
C       -1.383114000      7.360800000      4.412496000
H       -1.498853000      6.636441000      5.220270000
H       -2.334986000      7.885621000      4.298620000
H       -1.191477000      6.819211000      3.483964000
C        0.059302000      9.713322000      3.206174000
H        0.250179000      9.108121000      2.317889000
H       -0.882417000     10.243417000      3.046723000
H        0.855230000     10.458065000      3.284824000
C        5.507106000      7.492973000      4.615290000
H        6.538677000      7.541010000      4.972067000
H        4.884610000      8.036306000      5.332058000
H        5.192027000      6.446539000      4.635426000
C        5.965320000     10.020209000      3.043506000
H        5.946152000     10.539476000      2.084576000
H        5.346259000     10.587368000      3.742905000
H        6.991497000     10.039435000      3.417933000
C        6.522189000      7.322480000      1.763022000
H        7.532617000      7.381712000      2.175359000
H        6.267251000      6.266688000      1.668428000
H        6.550335000      7.748784000      0.759206000
C        1.582799000      8.899267000      0.008817000
H        1.536187000      9.008109000     -1.077945000
H        0.844476000      8.152491000      0.303844000
H        1.303656000      9.858609000      0.448388000
C        3.696431000      6.829794000     -0.492254000
H        3.581417000      7.059324000     -1.554733000
H        4.711706000      6.458296000     -0.345426000
H        2.985359000      6.031086000     -0.263732000
C        4.432092000      9.757463000     -0.208156000
H        4.218078000     10.709813000      0.283151000
H        5.498328000      9.557293000     -0.094277000
H        4.230133000      9.884432000     -1.274616000
C        3.561379000      3.154947000      2.136847000
C        3.009492000      2.508933000      0.860676000
H        2.665503000      3.257348000      0.147963000
H        3.815892000      1.934206000      0.399838000
H        2.181781000      1.829460000      1.059544000
C        4.671202000      4.151232000      1.780681000
H        5.161414000      4.527921000      2.677784000
H        5.411725000      3.641674000      1.160289000
H        4.290885000      5.004019000      1.218379000
C        4.140478000      2.094359000      3.078724000
H        3.428949000      1.300386000      3.301091000
H        5.001686000      1.639434000      2.584242000
H        4.488651000      2.532724000      4.015708000
C        1.072330000      3.228287000      4.004275000
C        0.525702000      2.012190000      3.251225000
H        1.277882000      1.235950000      3.114466000
H       -0.287771000      1.584849000      3.841740000
H        0.122839000      2.293381000      2.276417000
C        1.711121000      2.828092000      5.338175000
H        2.088715000      3.700494000      5.872720000
H        0.940104000      2.363053000      5.956728000
H        2.520692000      2.110231000      5.220737000
C       -0.076719000      4.209525000      4.280182000
H       -0.665516000      4.407145000      3.383987000
H       -0.738917000      3.769944000      5.029301000
H        0.285375000      5.161016000      4.673455000
O        1.156399000      6.349252000      2.151992000
C        1.187867000      5.118140000      1.770204000
O        0.589943000      4.588145000      0.869705000
