90
AlSi4C23PH58O3
P        2.240925000      3.976865000      2.704980000
Si       3.126280000      8.295551000      0.287777000
Si       5.038645000      8.353986000      2.765184000
Si       1.943508000      6.871606000      6.585092000
Si       0.302266000      9.087093000      5.085284000
Al       2.011855000      7.170883000      3.227958000
O        2.385827000      5.379678000      3.285989000
C        1.770072000      7.917300000      5.055069000
H        2.624747000      8.612961000      5.104774000
C        3.276405000      8.245125000      2.147997000
H        2.868473000      9.230684000      2.442164000
C        3.274959000      5.528374000      6.482471000
H        4.253156000      5.958881000      6.704857000
H        3.076843000      4.753218000      7.228196000
H        3.331050000      5.059965000      5.501371000
C        0.300308000      6.046721000      7.016768000
H       -0.232158000      5.680856000      6.135821000
H        0.449869000      5.207877000      7.700667000
H       -0.356482000      6.763639000      7.514860000
C        2.484385000      7.876728000      8.083128000
H        1.745001000      8.609191000      8.403810000
H        2.685426000      7.207753000      8.924068000
H        3.411886000      8.411622000      7.862024000
C        0.221761000     10.112653000      6.665740000
H        1.184542000     10.565547000      6.911417000
H       -0.507065000     10.917466000      6.540626000
H       -0.097117000      9.513202000      7.520798000
C       -1.371291000      8.238116000      4.944225000
H       -1.661566000      7.754034000      5.877088000
H       -2.130231000      8.991344000      4.716471000
H       -1.385810000      7.496533000      4.146413000
C        0.467692000     10.321153000      3.673249000
H        0.415010000      9.826400000      2.702112000
H       -0.336195000     11.059585000      3.718080000
H        1.416712000     10.860689000      3.731981000
C        5.275372000      7.596739000      4.476624000
H        6.341455000      7.493509000      4.694831000
H        4.835695000      8.213398000      5.263350000
H        4.821593000      6.606987000      4.553200000
C        5.549829000     10.157951000      2.909318000
H        5.505760000     10.668523000      1.945907000
H        4.882607000     10.685422000      3.595986000
H        6.567194000     10.249404000      3.296583000
C        6.313563000      7.493029000      1.671336000
H        7.304314000      7.690635000      2.089265000
H        6.183013000      6.411139000      1.645005000
H        6.313046000      7.852001000      0.642396000
C        1.389830000      8.755400000     -0.296007000
H        1.462659000      9.401439000     -1.173655000
H        0.817108000      7.874676000     -0.586364000
H        0.827429000      9.297117000      0.466686000
C        3.572773000      6.644805000     -0.496852000
H        3.428993000      6.692782000     -1.578922000
H        4.610412000      6.362714000     -0.310179000
H        2.909332000      5.864296000     -0.113190000
C        4.223041000      9.638547000     -0.460539000
H        3.895387000     10.619291000     -0.104987000
H        5.283713000      9.540998000     -0.230242000
H        4.115308000      9.633302000     -1.548259000
C        3.873146000      3.146984000      2.628221000
C        3.849322000      2.113082000      1.494643000
H        3.610724000      2.576068000      0.535654000
H        4.844717000      1.671850000      1.412563000
H        3.143031000      1.303744000      1.674767000
C        4.864996000      4.258902000      2.265569000
H        4.977169000      4.971167000      3.081984000
H        5.838588000      3.808234000      2.060242000
H        4.550212000      4.809368000      1.376368000
C        4.298987000      2.489048000      3.941641000
H        3.691324000      1.615349000      4.178096000
H        5.333164000      2.153417000      3.837078000
H        4.259118000      3.184382000      4.781322000
C        0.916454000      3.070664000      3.576386000
C        0.795914000      1.648369000      3.023548000
H        1.648285000      1.027296000      3.299017000
H       -0.098778000      1.188719000      3.448489000
H        0.687197000      1.638231000      1.936646000
C        1.161915000      3.053678000      5.087016000
H        1.276533000      4.062738000      5.478874000
H        0.290683000      2.605670000      5.570497000
H        2.038035000      2.471936000      5.367465000
C       -0.382014000      3.842512000      3.294302000
H       -0.624431000      3.853496000      2.231767000
H       -1.193817000      3.351459000      3.834954000
H       -0.317079000      4.874587000      3.645508000
O        0.378293000      7.206749000      2.451085000
H        1.837100000      4.014882000      1.368347000
C       -0.096019000      6.595268000      1.418801000
O        0.440228000      5.687497000      0.813903000
H       -1.085702000      6.967600000      1.111210000
