89
AlSi4C23PH58O2
P        2.229097000      4.145420000      2.924872000
Si       3.338418000      8.300651000      0.453868000
Si       5.261309000      8.234700000      2.943349000
Si       1.941680000      7.177890000      6.759668000
Si       0.017892000      8.669159000      4.762873000
Al       2.286016000      6.980740000      3.381751000
O        2.912273000      5.254568000      3.745605000
C        1.691088000      7.877766000      5.043112000
H        2.367861000      8.750799000      5.038495000
C        3.509209000      8.122735000      2.304598000
H        3.078656000      9.088296000      2.633827000
C        3.357105000      5.939931000      6.949669000
H        4.299844000      6.456948000      7.135798000
H        3.160309000      5.296812000      7.811981000
H        3.499296000      5.312594000      6.070897000
C        0.409832000      6.324741000      7.459144000
H        0.134830000      5.418704000      6.916105000
H        0.625182000      6.033711000      8.490609000
H       -0.461220000      6.981790000      7.477311000
C        2.365841000      8.579024000      7.944248000
H        1.564744000      9.314335000      8.026065000
H        2.568747000      8.184935000      8.943152000
H        3.265449000      9.100638000      7.606817000
C       -0.469901000      9.856284000      6.141806000
H        0.299622000     10.615474000      6.298686000
H       -1.397095000     10.369715000      5.875500000
H       -0.634984000      9.346621000      7.092939000
C       -1.372007000      7.422107000      4.548847000
H       -1.472159000      6.735051000      5.390363000
H       -2.319370000      7.956024000      4.439264000
H       -1.201702000      6.840369000      3.641284000
C        0.085599000      9.663680000      3.168683000
H        0.248367000      8.998576000      2.317099000
H       -0.853981000     10.194706000      2.998873000
H        0.890559000     10.402840000      3.183488000
C        5.428667000      7.443207000      4.640552000
H        6.457788000      7.514719000      5.001002000
H        4.788504000      7.950255000      5.367221000
H        5.143892000      6.388425000      4.633268000
C        5.784664000     10.030181000      3.147011000
H        5.763196000     10.572979000      2.201034000
H        5.115136000     10.544162000      3.841416000
H        6.797075000     10.095689000      3.552463000
C        6.527790000      7.398129000      1.826398000
H        7.512855000      7.465752000      2.294740000
H        6.308313000      6.340598000      1.669403000
H        6.594134000      7.875541000      0.847072000
C        1.554599000      8.548607000     -0.080498000
H        1.494141000      8.552399000     -1.171853000
H        0.903463000      7.761557000      0.304599000
H        1.168134000      9.505912000      0.275303000
C        3.993577000      6.870442000     -0.595415000
H        4.025129000      7.222534000     -1.630277000
H        5.002100000      6.555508000     -0.326823000
H        3.343779000      5.993206000     -0.585587000
C        4.277274000      9.821808000     -0.148854000
H        3.968598000     10.712605000      0.403353000
H        5.358624000      9.719421000     -0.036776000
H        4.068585000      9.996748000     -1.207192000
C        3.516384000      3.128405000      2.102556000
C        2.941246000      2.473392000      0.840929000
H        2.577328000      3.215388000      0.128439000
H        3.736883000      1.909542000      0.349227000
H        2.131583000      1.778441000      1.062421000
C        4.625135000      4.118610000      1.718196000
H        5.129028000      4.498310000      2.606295000
H        5.354908000      3.602605000      1.090082000
H        4.244757000      4.974526000      1.160301000
C        4.113560000      2.069086000      3.032132000
H        3.406226000      1.275157000      3.269332000
H        4.968096000      1.612125000      2.527543000
H        4.473652000      2.511281000      3.962396000
C        1.050165000      3.220808000      3.985065000
C        0.484089000      1.999844000      3.255705000
H        1.233887000      1.225417000      3.095897000
H       -0.309943000      1.569537000      3.869840000
H        0.044209000      2.265190000      2.291847000
C        1.715314000      2.811922000      5.303830000
H        2.108261000      3.682015000      5.829860000
H        0.955866000      2.350203000      5.939175000
H        2.518929000      2.090566000      5.169146000
C       -0.092976000      4.195646000      4.307237000
H       -0.678239000      4.458115000      3.426848000
H       -0.757011000      3.717972000      5.031716000
H        0.278530000      5.122830000      4.743993000
O        0.965819000      6.306673000      2.360647000
C        1.256794000      5.127983000      1.699730000
H        0.356372000      4.585207000      1.389389000
H        1.874005000      5.277329000      0.802079000
