73

P   1.9120     4.1111     8.3184 
B   0.0454     4.1286     9.1111 
C   1.3931     5.7933     8.0060 
C   0.1796     5.6859     8.5946 
C   3.2645     4.0345     9.5130 
C   3.3451     5.0185    10.5007 
H   2.6910     5.8834    10.4605 
C   4.2576     4.8855    11.5348 
H   4.3173     5.6489    12.2994 
C   5.0877     3.7718    11.5917 
H   5.7935     3.6660    12.4050 
C   5.0140     2.7971    10.6070 
H   5.6609     1.9310    10.6500 
C   4.1037     2.9250     9.5671 
H   4.0388     2.1568     8.8062 
C   2.3800     3.1529     6.8704 
C   3.1226     3.7159     5.8342 
H   3.4427     4.7493     5.8910 
C   3.4370     2.9497     4.7225 
H   4.0084     3.3857     3.9138 
C   3.0156     1.6282     4.6445 
H   3.2606     1.0353     3.7729 
C   2.2758     1.0673     5.6760 
H   1.9433     0.0397     5.6114 
C   1.9519     1.8286     6.7901 
H   1.3621     1.4012     7.5931 
C   2.0587     6.8945     7.3022 
C   1.3380     7.7329     6.4506 
H   0.2817     7.5526     6.2938 
C   1.9705     8.7691     5.7852 
H   1.3970     9.4042     5.1201 
C   3.3351     9.0027     5.9443 
C   4.0533     8.1510     6.7793 
H   5.1178     8.3062     6.9092 
C   3.4292     7.1086     7.4456 
H   4.0094     6.4575     8.0901 
C   4.0052    10.1522     5.2465 
H   3.8832    11.0725     5.8221 
H   3.5718    10.3215     4.2610 
H   5.0733     9.9745     5.1282 
C  -0.7512     6.8237     8.7452 
F   0.9215     8.1598     9.7346 
C  -0.3323     8.0243     9.3119 
F  -0.7599    10.2184    10.0447 
C  -1.1895     9.0926     9.4910 
F  -3.3409    10.0015     9.2555 
C  -2.5122     8.9822     9.0937 
F  -4.2275     7.6922     8.1467 
C  -2.9634     7.8018     8.5318 
F  -2.5561     5.6270     7.8216 
C  -2.0857     6.7430     8.3734 
C  -0.9851     3.1557     8.3395 
F  -1.7868     2.0718    10.2938 
C  -1.7893     2.2101     8.9655 
F  -3.3899     0.4789     8.9351 
C  -2.6468     1.3630     8.2793 
F  -3.5430     0.6385     6.2323 
C  -2.7308     1.4423     6.9031 
F  -2.0325     2.4657     4.9090 
C  -1.9589     2.3745     6.2323 
F  -0.4132     4.0890     6.2434 
C  -1.1205     3.2015     6.9543 
C   0.2784     3.8721    10.6888 
F  -0.5049     5.9753    11.4232 
C   0.0804     4.8017    11.6930 
F   0.2641     5.5304    13.9304 
C   0.4769     4.5993    13.0070 
F   1.4998     3.2108    14.6018 
C   1.1054     3.4189    13.3534 
F   1.9276     1.3156    12.7051 
C   1.3187     2.4513    12.3844 
F   1.1412     1.7428    10.1809 
C   0.8949     2.6951    11.0948 









 
