86

C     2.4815     1.2924    16.4817 
H     2.6862     2.3684    16.5738 
H     1.3988     1.1828    16.5746 
C     3.2420     0.5750    17.5890 
C     2.5792     0.4005    18.7397 
H     3.1670    -0.0078    19.5589 
Si    0.8159     0.8134    19.2116 
C     0.6260     0.4015    21.0270 
H     1.3164     0.9929    21.6314 
H     0.8436    -0.6525    21.2107 
H    -0.3877     0.6045    21.3771 
C    -0.4274    -0.2141    18.2356 
H    -1.4316    -0.0635    18.6390 
H    -0.1924    -1.2779    18.3083 
H    -0.4641     0.0505    17.1763 
C     0.4275     2.6342    18.9514 
H     0.3727     2.9047    17.8952 
H     1.1934     3.2584    19.4160 
H    -0.5337     2.8850    19.4057 
C     3.0729    -0.5494    13.9678 
C     2.6748    -1.7671    14.5320 
C     2.9752    -2.9431    13.8456 
H     2.6829    -3.8864    14.2955 
C     3.6464    -2.9496    12.6375 
C     4.0105    -1.7240    12.0853 
H     4.5332    -1.7066    11.1357 
C     3.7446    -0.5259    12.7215 
C     1.9316    -1.9386    15.8292 
H     1.8021    -1.0298    16.4050 
H     2.4730    -2.6413    16.4657 
H     0.9443    -2.3645    15.6334 
C     4.0102    -4.2333    11.9523 
H     3.8253    -4.1724    10.8796 
H     3.4480    -5.0725    12.3582 
H     5.0723    -4.4404    12.0971 
C     4.2210     0.7452    12.0661 
H     4.5777     0.5320    11.0608 
H     5.0525     1.1830    12.6251 
H     3.4318     1.4959    11.9862 
C     1.5275     2.0073    13.8616 
C     1.7998     3.3466    13.5165 
C     0.8165     4.0768    12.8613 
H     1.0236     5.1070    12.5942 
C    -0.4223     3.5325    12.5464 
C    -0.6728     2.2178    12.9127 
H    -1.6381     1.7791    12.6870 
C     0.2757     1.4430    13.5692 
C     3.1087     4.0345    13.8205 
H     3.4001     3.9421    14.8682 
H     3.0287     5.0956    13.5948 
H     3.9251     3.6302    13.2166 
C    -1.4741     4.3609    11.8664 
H    -2.1826     3.7342    11.3268 
H    -1.0277     5.0651    11.1652 
H    -2.0349     4.9396    12.6035 
C    -0.0842     0.0304    13.9397 
H    -1.1612    -0.1127    13.8757 
H     0.2203    -0.2128    14.9579 
H     0.3975    -0.6905    13.2763 
C     5.0289    -1.4114    17.1780 
F     4.3930    -1.8198    19.4195 
C     4.7169    -2.2918    18.2102 
F     4.4177    -4.4464    19.1293 
C     4.7384    -3.6689    18.0985 
F     5.1310    -5.5674    16.7569 
C     5.1105    -4.2460    16.8957 
F     5.8590    -3.9608    14.6922 
C     5.4789    -3.4240    15.8530 
F     5.8511    -1.3528    14.9359 
C     5.4425    -2.0453    16.0156 
C     5.7219     0.8811    18.5717 
F     4.5963     2.9378    18.2216 
C     5.5109     2.2180    18.8922 
F     5.9448     4.1757    20.1438 
C     6.1996     2.8945    19.8815 
F     7.8502     2.8567    21.5583 
C     7.1729     2.2270    20.6043 
F     8.3823     0.2564    20.9915 
C     7.4372     0.9040    20.3139 
F     7.0681    -1.0069    19.0799 
C     6.7199     0.2665    19.3108 
B     4.8318     0.2374    17.3351 
P     2.8233     1.0685    14.7159 
O     5.1753     0.9353    16.0828 
H     6.0568     0.7107    15.7787 
H     3.9614     1.7788    14.4080 









