88

C     2.7809     1.5107    15.9750 
H     3.2121     2.5129    16.0502 
H     1.7089     1.6062    16.1517 
C     3.4719     0.6583    17.0351 
C     2.8445     0.5266    18.2093 
H     3.4139     0.0182    18.9877 
Si    1.1948     1.1925    18.7990 
C     1.0135     0.6728    20.5875 
H     1.8357     1.0633    21.1903 
H     1.0220    -0.4152    20.6792 
H     0.0788     1.0407    21.0145 
C    -0.2756     0.5178    17.8345 
H    -1.1984     0.7986    18.3480 
H    -0.2457    -0.5718    17.7761 
H    -0.3426     0.9109    16.8177 
C     1.1693     3.0686    18.6920 
H     1.1686     3.4216    17.6586 
H     2.0447     3.4936    19.1869 
H     0.2770     3.4692    19.1782 
C     3.2558    -0.5609    13.7643 
C     2.5932    -1.6048    14.4216 
C     2.9042    -2.9124    14.0691 
H     2.4005    -3.7235    14.5837 
C     3.8378    -3.2049    13.0869 
C     4.4621    -2.1476    12.4298 
H     5.1945    -2.3633    11.6602 
C     4.1954    -0.8248    12.7454 
C     1.5457    -1.3980    15.4810 
H     1.0585    -0.4249    15.4187 
H     1.9824    -1.4801    16.4779 
H     0.7690    -2.1577    15.3872 
C     4.1836    -4.6234    12.7401 
H     3.8924    -4.8500    11.7127 
H     3.6841    -5.3276    13.4034 
H     5.2602    -4.7840    12.8174 
C     4.9179     0.2599    11.9925 
H     5.5053    -0.1769    11.1879 
H     5.5975     0.8135    12.6451 
H     4.2230     0.9756    11.5453 
C     1.5902     1.9629    13.3139 
C     1.5770     3.3743    13.3878 
C     0.5722     4.0740    12.7307 
H     0.5736     5.1567    12.7863 
C    -0.4189     3.4337    12.0043 
C    -0.3723     2.0495    11.9238 
H    -1.1241     1.5334    11.3380 
C     0.6091     1.2920    12.5532 
C     2.5859     4.2015    14.1498 
H     3.6042     3.8130    14.1100 
H     2.3021     4.2889    15.2005 
H     2.6109     5.2090    13.7396 
C    -1.5153     4.2092    11.3335 
H    -1.8321     3.7247    10.4106 
H    -1.1965     5.2247    11.1027 
H    -2.3868     4.2745    11.9886 
C     0.5466    -0.2002    12.3419 
H    -0.2849    -0.4335    11.6802 
H     0.3864    -0.7406    13.2732 
H     1.4575    -0.5907    11.8898 
C     5.2671    -1.3630    16.3929 
F     3.9415    -2.1169    18.2015 
C     4.6909    -2.3930    17.1262 
F     4.2693    -4.6671    17.5970 
C     4.8661    -3.7377    16.8544 
F     5.8516    -5.4022    15.5092 
C     5.6768    -4.1169    15.8011 
F     7.0649    -3.4797    14.0215 
C     6.2914    -3.1366    15.0515 
F     6.7460    -0.9392    14.5696 
C     6.0798    -1.7998    15.3544 
C     5.9409     0.7385    18.0313 
F     5.1326     2.9250    17.6480 
C     5.8674     2.0803    18.3915 
F     6.4047     3.9239    19.7650 
C     6.5180     2.6305    19.4776 
F     7.9340     2.3134    21.3280 
C     7.2995     1.8123    20.2767 
F     8.1633    -0.3194    20.7209 
C     7.4128     0.4732    19.9630 
F     6.9214    -1.3400    18.6300 
C     6.7434    -0.0343    18.8562 
B     5.0376     0.2308    16.7525 
P     2.9597     1.1521    14.1942 
C     6.3966     1.7648    15.2293 
O     5.3590     1.0256    15.5146 
O     6.4542     2.4347    14.2277 
H     7.2120     1.7344    15.9673 
H     4.0741     1.8393    13.7417 











