58

 B                  2.91717800    8.14690600    9.84663100
 N                  3.43870800    9.59191400   10.27934800
 N                  2.52137100   10.12310100   11.11818700
 F                  2.49801400   10.41643100    7.87184900
 F                  1.36816600   10.15706100    5.49491800
 F                  0.46944800    7.74318100    4.64373900
 F                  0.73174900    5.56941500    6.24376200
 F                  1.88656700    5.80002400    8.64056900
 F                  3.82284500    7.81605900   12.50624400
 F                  5.61738700    6.07110000   13.41687200
 F                  6.88144400    4.39185400   11.70189300
 F                  6.30070900    4.48154800    9.05749200
 F                  4.50836700    6.18946800    8.12544700
 C                  2.90208200   11.35961800   11.52898700
 C                  4.10954400   11.59455400   10.90266600
 H                  4.69856700   12.48855000   10.98885000
 C                  4.42866700   10.46331100   10.13074500
 C                  2.13817600   12.25578300   12.47233200
 C                  2.06319900   11.61368700   13.86534400
 H                  1.49824000   10.68524900   13.85026200
 H                  1.56649100   12.30715300   14.54598300
 H                  3.06483300   11.41648700   14.25144500
 C                  0.73350700   12.53394200   11.92013600
 H                  0.79269100   12.98789000   10.92930500
 H                  0.22545000   13.23419200   12.58507500
 H                  0.13873400   11.62580600   11.86228900
 C                  2.89107700   13.58453000   12.58754300
 H                  3.89147500   13.44409100   13.00032600
 H                  2.34162800   14.24339000   13.25985300
 H                  2.97480200   14.08321900   11.62043200
 C                  5.69658900   10.23563500    9.33946100
 C                  6.32858100   11.59435200    9.01909000
 H                  5.63404600   12.23452600    8.47285600
 H                  7.21061300   11.43852000    8.39748700
 H                  6.64922900   12.11383300    9.92297700
 C                  6.67283200    9.43192400   10.21551300
 H                  6.82948000    9.92168800   11.17792700
 H                  7.63475500    9.36057600    9.70509900
 H                  6.30728900    8.42135500   10.39585400
 C                  5.44537200    9.49207600    8.02671700
 H                  4.96849900    8.52603200    8.17754700
 H                  6.40417800    9.30929000    7.53923100
 H                  4.82688400   10.08239200    7.35152900
 C                  2.31604800    8.09430600    8.34223200
 C                  2.12018200    9.18113400    7.50528000
 C                  1.51617400    9.08225300    6.26180700
 C                  1.05334800    7.85534500    5.82687100
 C                  1.19170500    6.74696100    6.64501500
 C                  1.80340100    6.89023400    7.87604000
 C                  4.02521400    7.04621800   10.28189000
 C                  4.37725200    6.97259200   11.62493800
 C                  5.31991600    6.09371100   12.12408400
 C                  5.97103800    5.23951600   11.25045500
 C                  5.66968700    5.28664100    9.90206100
 C                  4.71355600    6.18070100    9.44534700
 O                  1.73635400    8.07817600   10.77091600
 O                  0.59056500    9.38988700   12.18773500
 C                  1.48426900    9.16126800   11.43788000