58

 B                  2.59263200    7.91285300    9.98837300
 N                  3.06179900    9.41760100   10.34518700
 N                  2.20251900   10.05346400   11.15563400
 F                  1.95500000   10.17277800    7.98025800
 F                  0.64540200    9.83921300    5.71371000
 F                 -0.25013200    7.38889600    4.96927400
 F                  0.19941400    5.24903100    6.58154700
 F                  1.52742500    5.55859200    8.88181900
 F                  3.93573800    7.69021600   12.46832100
 F                  5.92051200    6.05464500   13.13162200
 F                  7.02172000    4.41210800   11.27518600
 F                  6.07289400    4.42727300    8.73513400
 F                  4.08462800    6.02535600    8.04593500
 C                  2.57312800   11.30702800   11.39723500
 C                  3.74564800   11.49936200   10.68510600
 H                  4.31845100   12.40731300   10.63771000
 C                  4.03134400   10.29607300   10.03113200
 C                  1.78978200   12.24368300   12.27746400
 C                  0.58817400   11.52826000   12.89529200
 H                 -0.10210400   11.16909700   12.12895500
 H                  0.04010300   12.22294400   13.53212000
 H                  0.89915200   10.68450600   13.51499200
 C                  1.30491400   13.42072700   11.42134200
 H                  2.14672500   13.95525900   10.97968400
 H                  0.74164300   14.12030400   12.04130700
 H                  0.65917400   13.07485600   10.61305600
 C                  2.71099200   12.75912600   13.38929000
 H                  3.07625300   11.93714300   14.00629700
 H                  2.16430700   13.45556500   14.02720800
 H                  3.57232400   13.28269700   12.97288300
 C                  5.24388900   10.05101900    9.15093700
 C                  5.82866900   11.41022500    8.74342700
 H                  5.08054200   12.03273600    8.25031900
 H                  6.64956800   11.24501500    8.04516100
 H                  6.22947900   11.95174900    9.60141600
 C                  6.32397900    9.29774500    9.94469200
 H                  6.50945300    9.78043500   10.90573300
 H                  7.25362100    9.30409800    9.37265900
 H                  6.04830300    8.26150000   10.12428800
 C                  4.90399100    9.28884400    7.86826400
 H                  4.42780900    8.33177200    8.05877300
 H                  5.82832400    9.09276000    7.32192500
 H                  4.24857600    9.87796800    7.22702900
 C                  1.87915900    7.85558900    8.50977800
 C                  1.58546100    8.91902500    7.67274000
 C                  0.88588400    8.78118200    6.48231800
 C                  0.42466200    7.53673200    6.10076600
 C                  0.65856500    6.44723600    6.92302600
 C                  1.36117800    6.63626500    8.09642100
 C                  3.86882600    6.91317300   10.23491000
 C                  4.40058700    6.86962400   11.52044400
 C                  5.44666100    6.04427700   11.89012100
 C                  6.01672500    5.20989400   10.94421400
 C                  5.52951400    5.22050800    9.65134400
 C                  4.47575900    6.06147100    9.32551200
 O                  1.56717100    7.67152300   10.99811400
 H                  1.44324000    9.48847300   11.52331000
 H                  1.13136900    6.82717900   10.86832900

