60

B        3.100606000      7.882958000     10.287834000
N        3.506506000      9.402876000     10.590785000
N        2.600878000     10.087078000     11.314885000
F        2.101928000     10.127205000      8.451135000
F        0.469609000      9.782979000      6.410664000
F       -0.470027000      7.318478000      5.779260000
F        0.280014000      5.173519000      7.262639000
F        1.942532000      5.485404000      9.325328000
F        4.776292000      7.605218000     12.544354000
F        6.858280000      5.977779000     12.847726000
F        7.715085000      4.454059000     10.773683000
F        6.421615000      4.569717000      8.394653000
F        4.327437000      6.152165000      8.071598000
C        2.946241000     11.360305000     11.467579000
C        4.156216000     11.513265000     10.812055000
H        4.723586000     12.421914000     10.733558000
C        4.476766000     10.277834000     10.244822000
C        2.090482000     12.358816000     12.199137000
C        0.845768000     11.685079000     12.777388000
H        0.219948000     11.248780000     11.996163000
H        0.247255000     12.426460000     13.307326000
H        1.109317000     10.898185000     13.487014000
C        1.671557000     13.450157000     11.205258000
H        2.543004000     13.959004000     10.791307000
H        1.051127000     14.190779000     11.712607000
H        1.099734000     13.024820000     10.379296000
C        2.918547000     12.979833000     13.330110000
H        3.232798000     12.220074000     14.046932000
H        2.320481000     13.725619000     13.856286000
H        3.810387000     13.471987000     12.939941000
C        5.658577000     10.042331000      9.315518000
C        6.264965000     11.409601000      8.963340000
H        5.519555000     12.083204000      8.539280000
H        7.048941000     11.260720000      8.220841000
H        6.718873000     11.884558000      9.834765000
C        6.778616000      9.212634000      9.966550000
H        6.935076000      9.505566000     11.006186000
H        7.707201000      9.389481000      9.421469000
H        6.579205000      8.146964000      9.929651000
C        5.190529000      9.400663000      8.004289000
H        4.668447000      8.460044000      8.156197000
H        6.058878000      9.200788000      7.373636000
H        4.522249000     10.074142000      7.465927000
C        2.135273000      7.806532000      8.977263000
C        1.707741000      8.870172000      8.197726000
C        0.843522000      8.725256000      7.123025000
C        0.359378000      7.473133000      6.800345000
C        0.743493000      6.381177000      7.559817000
C        1.608141000      6.571123000      8.620111000
C        4.421893000      6.936889000     10.306527000
C        5.121280000      6.839852000     11.504834000
C        6.217050000      6.017320000     11.685318000
C        6.662382000      5.244120000     10.626890000
C        6.001103000      5.307442000      9.414936000
C        4.900162000      6.139914000      9.279644000
C        1.076664000      7.517560000     11.777519000
O        2.329341000      7.348742000     11.468766000
O        0.399564000      8.487755000     11.508098000
H        0.676508000      6.679119000     12.359741000
H        1.690441000      9.645949000     11.500545000
