80

B    1.0807     4.3722     9.6431 
C    3.9664     4.8242     9.6222 
C    3.3467     4.8499    10.8990 
C    1.9298     4.7314    10.9742 
C    1.3539     4.9075    12.2068 
H    0.2730     4.8703    12.2998 
C    2.1351     5.0878    13.3722 
H    1.6397     5.1993    14.3289 
C    3.5011     5.0972    13.3114 
H    4.0988     5.2068    14.2082 
C    4.1496     4.9869    12.0569 
C    5.5551     5.0031    11.9029 
H    6.1755     5.0936    12.7870 
C    6.1327     4.8936    10.6647 
H    7.2105     4.8840    10.5682 
C    5.3339     4.8138     9.5059 
H    5.8071     4.7307     8.5347 
C    0.9853     2.8029     9.1766 
C    1.4290     1.7057     9.9451 
C    1.4537     0.4185     9.3995 
H    1.8109    -0.3995    10.0167 
C    1.0431     0.1483     8.1072 
C    0.5543     1.2131     7.3644 
H    0.2069     1.0349     6.3513 
C    0.5123     2.5050     7.8705 
C    1.8646     1.8012    11.3902 
H    2.0331     0.8012    11.7880 
H    1.1068     2.2836    12.0063 
H    2.7860     2.3702    11.5211 
C    1.1358    -1.2295     7.5149 
H    1.9123    -1.2638     6.7463 
H    0.1970    -1.5199     7.0408 
H    1.3800    -1.9716     8.2743 
C   -0.0701     3.5478     6.9495 
H   -0.0632     3.1868     5.9213 
H    0.4728     4.4906     6.9754 
H   -1.0994     3.7901     7.2213 
C   -0.2439     5.3027     9.5403 
C   -0.1619     6.7122     9.4989 
C   -1.3005     7.4890     9.2864 
H   -1.1918     8.5679     9.2264 
C   -2.5642     6.9306     9.1958 
C   -2.6657     5.5625     9.4042 
H   -3.6506     5.1075     9.4395 
C   -1.5480     4.7533     9.5909 
C    1.0940     7.4970     9.8070 
H    1.1634     8.3876     9.1807 
H    2.0196     6.9443     9.7033 
H    1.0498     7.8242    10.8496 
C   -3.7797     7.7717     8.9228 
H   -3.6179     8.8077     9.2202 
H   -4.6501     7.3917     9.4583 
H   -4.0229     7.7669     7.8577 
C   -1.8308     3.3054     9.9291 
H   -2.8436     3.2215    10.3234 
H   -1.1422     2.9242    10.6822 
H   -1.7531     2.6401     9.0680 
P    2.7309     4.8331     8.3024 
C    2.9096     6.3737     7.3335 
C    1.7690     6.9410     6.7665 
C    4.1471     6.9750     7.1168 
C    1.8694     8.0823     5.9828 
H    0.7924     6.5159     6.9620 
C    4.2441     8.1192     6.3392 
H    5.0397     6.5604     7.5644 
C    3.1061     8.6719     5.7668 
H    0.9756     8.5152     5.5527 
H    5.2105     8.5800     6.1815 
H    3.1836     9.5650     5.1603 
C    3.2581     3.5438     7.1345 
C    3.8009     2.3567     7.6264 
C    3.0105     3.6700     5.7698 
C    4.0719     1.3057     6.7663 
H    3.9873     2.2445     8.6869 
C    3.2837     2.6144     4.9112 
H    2.5947     4.5890     5.3748 
C    3.8076     1.4296     5.4085 
H    4.4776     0.3833     7.1616 
H    3.0846     2.7194     3.8526 
H    4.0140     0.6050     4.7382 











 
