86

B    0.6432     4.4490    10.1864 
C    4.0356     3.9437     9.2243 
C    3.4975     4.2902    10.5187 
C    2.1638     4.7959    10.8076 
C    2.0478     5.4538    12.0212 
H    1.1123     5.9368    12.2605 
C    3.0312     5.4621    13.0298 
H    2.8397     5.9856    13.9577 
C    4.1582     4.7222    12.8620 
H    4.8843     4.5981    13.6563 
C    4.4170     4.1299    11.6034 
C    5.6016     3.3699    11.4472 
H    6.2253     3.2164    12.3201 
C    5.9506     2.8436    10.2402 
H    6.8417     2.2410    10.1262 
C    5.1968     3.2132     9.1124 
H    5.5905     2.9791     8.1321 
C   -0.0660     3.0070    10.5836 
C    0.4942     1.9769    11.3705 
C   -0.2415     0.8350    11.6896 
H    0.2231     0.0730    12.3067 
C   -1.5346     0.6323    11.2403 
C   -2.0750     1.6141    10.4275 
H   -3.0787     1.4800    10.0355 
C   -1.3812     2.7773    10.1011 
C    1.9018     1.9992    11.9168 
H    2.0683     1.1233    12.5426 
H    2.1068     2.8830    12.5195 
H    2.6408     1.9719    11.1148 
C   -2.3203    -0.5894    11.6271 
H   -3.0215    -0.8724    10.8417 
H   -2.8999    -0.4048    12.5345 
H   -1.6622    -1.4358    11.8234 
C   -2.1675     3.7369     9.2258 
H   -2.8409     3.1687     8.5821 
H   -1.5532     4.3775     8.6012 
H   -2.7811     4.4007     9.8393 
C   -0.3746     5.7059    10.4888 
C   -0.4064     6.8549     9.6721 
C   -1.3637     7.8487     9.8570 
H   -1.3590     8.7109     9.1971 
C   -2.2986     7.7852    10.8777 
C   -2.1978     6.7179    11.7551 
H   -2.8650     6.6762    12.6107 
C   -1.2615     5.6981    11.5897 
C    0.6232     7.1152     8.5989 
H    0.3987     6.5964     7.6633 
H    1.6177     6.8151     8.9342 
H    0.6702     8.1809     8.3749 
C   -3.3562     8.8411    11.0411 
H   -3.0015     9.8120    10.6943 
H   -3.6588     8.9379    12.0838 
H   -4.2474     8.5902    10.4612 
C   -1.2549     4.6467    12.6809 
H   -1.6042     5.0947    13.6121 
H   -0.2654     4.2294    12.8573 
H   -1.9138     3.8080    12.4464 
P    3.4649     4.8842     7.7616 
C    4.3433     6.4710     7.9601 
C    3.8523     7.5602     7.2399 
C    5.4600     6.6403     8.7752 
C    4.4814     8.7940     7.3124 
H    2.9678     7.4397     6.6236 
C    6.0803     7.8796     8.8566 
H    5.8429     5.8079     9.3530 
C    5.5970     8.9544     8.1232 
H    4.0938     9.6313     6.7469 
H    6.9433     8.0053     9.4976 
H    6.0832     9.9190     8.1910 
C    4.3160     4.1001     6.3470 
C    3.9808     2.7851     6.0127 
C    5.2399     4.7784     5.5568 
C    4.5598     2.1636     4.9190 
H    3.2801     2.2337     6.6291 
C    5.8113     4.1568     4.4523 
H    5.5216     5.7944     5.8018 
C    5.4747     2.8517     4.1307 
H    4.2961     1.1415     4.6799 
H    6.5276     4.6975     3.8474 
H    5.9237     2.3690     3.2725 
C    0.8015     3.0109     7.9165 
H   -0.1788     2.5485     7.9201 
H    1.5104     2.3767     8.4511 
H    1.1303     3.1845     6.8924 
O    0.7028     4.2955     8.5505 
H    1.4634     4.8285     8.1817 
















 
