83

B     0.6707     5.0914    10.1954 
C     3.8976     4.7920     9.8063 
C     3.2963     5.3002    11.0065 
C     1.8957     5.5805    11.1853 
C     1.5387     6.1549    12.3877 
H     0.4939     6.3799    12.5587 
C     2.4378     6.4125    13.4411 
H     2.0758     6.8646    14.3558 
C     3.7385     6.0355    13.3207 
H     4.4426     6.1581    14.1346 
C     4.1940     5.4628    12.1103 
C     5.5342     5.0230    12.0354 
H     6.1604     5.1480    12.9110 
C     6.0356     4.4482    10.9041 
H     7.0580     4.0999    10.8550 
C     5.2140     4.3770     9.7719 
H     5.6478     4.0289     8.8407 
C     0.7593     3.5078     9.7266 
C     1.4284     2.4786    10.4301 
C     1.4292     1.1679     9.9502 
H     1.9505     0.4059    10.5229 
C     0.7786     0.8001     8.7864 
C     0.0723     1.7898     8.1212 
H    -0.4927     1.5261     7.2319 
C     0.0314     3.1052     8.5737 
C     2.1214     2.6322    11.7706 
H     1.9702     1.7214    12.3513 
H     1.7537     3.4654    12.3611 
H     3.2012     2.7630    11.6539 
C     0.7874    -0.6166     8.2860 
H     0.9748    -0.6477     7.2108 
H    -0.1761    -1.0992     8.4634 
H     1.5545    -1.2082     8.7863 
C    -0.8856     4.0225     7.7909 
H    -1.6675     3.4271     7.3198 
H    -0.3618     4.5538     6.9916 
H    -1.3580     4.7719     8.4215 
C    -0.8045     5.5545    10.7658 
C    -1.2168     6.9037    10.6381 
C    -2.4968     7.3009    11.0194 
H    -2.7749     8.3441    10.9037 
C    -3.4176     6.4154    11.5538 
C    -2.9951     5.1115    11.7492 
H    -3.6737     4.4041    12.2154 
C    -1.7220     4.6756    11.3825 
C    -0.3248     8.0180    10.1303 
H    -0.6555     8.9675    10.5524 
H    -0.3670     8.0984     9.0433 
H     0.7183     7.8719    10.4037 
C    -4.8109     6.8520    11.9124 
H    -4.8340     7.9046    12.1956 
H    -5.2080     6.2641    12.7402 
H    -5.4873     6.7247    11.0639 
C    -1.4061     3.2376    11.7293 
H    -2.1532     2.8585    12.4265 
H    -0.4316     3.1418    12.2049 
H    -1.4038     2.5878    10.8531 
P     3.2016     4.9056     8.1543 
C     4.3813     5.9140     7.2256 
C     4.4975     7.2586     7.5770 
C     5.1842     5.3830     6.2242 
C     5.4120     8.0652     6.9248 
H     3.8681     7.6755     8.3558 
C     6.1039     6.1978     5.5746 
H     5.0943     4.3408     5.9447 
C     6.2170     7.5340     5.9227 
H     5.4952     9.1098     7.1935 
H     6.7275     5.7842     4.7931 
H     6.9307     8.1673     5.4120 
C     3.0719     3.3386     7.2849 
C     3.5850     2.1636     7.8185 
C     2.4959     3.3489     6.0111 
C     3.5403     0.9960     7.0676 
H     3.9973     2.1504     8.8188 
C     2.4463     2.1765     5.2780 
H     2.0931     4.2689     5.6041 
C     2.9763     1.0020     5.8024 
H     3.9299     0.0773     7.4865 
H     1.9950     2.1793     4.2948 
H     2.9399     0.0881     5.2234 
O     1.5103     6.3507     6.8163 
O     0.7602     5.9290     8.8640 
C     1.5891     5.8677     7.9201 
























 
