74
BC32PH36Cl4
P        3.016145000      2.192831000      2.975263000
B        0.141793000      2.890487000      4.123615000
C        1.478865000      2.241301000      1.951585000
C        1.456257000      1.948640000      0.589681000
H        2.371682000      1.681173000      0.076956000
C        0.271315000      1.972473000     -0.134123000
H        0.283114000      1.749315000     -1.193659000
C       -0.924275000      2.262307000      0.504900000
H       -1.853731000      2.269653000     -0.049663000
C       -0.922733000      2.514995000      1.867577000
H       -1.862525000      2.713783000      2.371631000
C        0.266313000      2.531724000      2.604466000
C        1.031686000      3.980467000      4.843408000
C        1.695468000      3.729144000      6.048024000
C        2.450543000      4.680280000      6.714061000
H        2.950561000      4.409170000      7.634480000
C        2.571524000      5.962570000      6.195531000
C        1.917633000      6.257744000      5.005363000
H        1.977580000      7.249979000      4.577020000
C        1.178593000      5.283710000      4.357006000
C        3.422072000      6.998134000      6.873671000
H        4.386357000      7.083144000      6.367140000
H        3.610017000      6.735837000      7.913551000
H        2.946109000      7.978058000      6.842587000
C       -1.027805000      2.194125000      4.928340000
C       -2.088139000      2.904148000      5.484538000
C       -3.134035000      2.301130000      6.166688000
H       -3.933131000      2.913292000      6.563298000
C       -3.150400000      0.923502000      6.329805000
C       -2.112083000      0.176418000      5.780734000
H       -2.095078000     -0.900611000      5.886535000
C       -1.092601000      0.807470000      5.093586000
C       -4.252462000      0.244896000      7.093510000
H       -5.095903000      0.915730000      7.247854000
H       -3.894897000     -0.078860000      8.072853000
H       -4.606415000     -0.639751000      6.563843000
C        4.037234000      0.918069000      2.093201000
H        4.158379000      1.177986000      1.035848000
C        3.344060000     -0.446719000      2.192140000
H        3.189760000     -0.680782000      3.252241000
H        2.353897000     -0.406030000      1.733241000
C        4.182378000     -1.549597000      1.548431000
H        3.673896000     -2.510620000      1.649799000
H        4.274244000     -1.351410000      0.474880000
C        5.575624000     -1.616320000      2.167865000
H        5.485007000     -1.905064000      3.220546000
H        6.175023000     -2.386391000      1.678041000
C        6.275093000     -0.262941000      2.081205000
H        6.448106000     -0.013896000      1.028435000
H        7.255373000     -0.309123000      2.560286000
C        5.433667000      0.839833000      2.723180000
H        5.949660000      1.797446000      2.632011000
H        5.326204000      0.640735000      3.795593000
C        3.764855000      3.835025000      2.478256000
H        2.891491000      4.497145000      2.454052000
C        4.696957000      4.366795000      3.573149000
H        4.182346000      4.335484000      4.536339000
H        5.573910000      3.716944000      3.664518000
C        5.156601000      5.789138000      3.257860000
H        4.283596000      6.452310000      3.274879000
H        5.842829000      6.143826000      4.030766000
C        5.817222000      5.865823000      1.883429000
H        6.731256000      5.261429000      1.891637000
H        6.118477000      6.891682000      1.661569000
C        4.881170000      5.341207000      0.797483000
H        5.370956000      5.378474000     -0.178059000
H        4.000745000      5.990059000      0.737754000
C        4.423700000      3.913209000      1.101273000
H        5.293013000      3.247609000      1.065866000
H        3.728094000      3.575134000      0.329861000
Cl       0.182328000     -0.183255000      4.451109000
Cl      -2.157261000      4.631251000      5.273982000
Cl       1.645251000      2.138418000      6.737203000
Cl       0.380048000      5.760145000      2.886482000
