77
BC33PH36O2Cl4
P        2.854542000      2.049154000      2.671355000
B        0.152848000      2.399671000      4.219118000
C        1.299070000      2.067224000      1.806803000
C        1.251004000      1.940062000      0.415684000
H        2.158847000      1.805220000     -0.160874000
C        0.030791000      1.976693000     -0.229829000
H       -0.019833000      1.881121000     -1.306266000
C       -1.129811000      2.120773000      0.525059000
H       -2.092715000      2.138569000      0.030156000
C       -1.064761000      2.237853000      1.901235000
H       -1.984414000      2.351126000      2.462753000
C        0.152403000      2.235200000      2.593307000
C        0.372846000      3.937038000      4.801490000
C        0.582526000      4.125197000      6.183016000
C        0.886255000      5.341837000      6.771483000
H        1.028925000      5.384222000      7.843472000
C        0.981801000      6.493513000      6.003906000
C        0.736892000      6.376399000      4.647064000
H        0.765641000      7.248786000      4.007140000
C        0.440649000      5.138565000      4.086762000
C        1.346763000      7.812350000      6.624209000
H        2.428076000      7.886397000      6.761197000
H        0.883326000      7.925455000      7.604086000
H        1.031434000      8.643652000      5.994992000
C       -1.168981000      1.605488000      4.783972000
C       -2.340986000      2.186453000      5.277321000
C       -3.405633000      1.471832000      5.808472000
H       -4.266715000      2.010331000      6.181855000
C       -3.369946000      0.087667000      5.848852000
C       -2.267709000     -0.543674000      5.291304000
H       -2.218209000     -1.623765000      5.246400000
C       -1.226060000      0.203809000      4.766281000
C       -4.487159000     -0.704008000      6.468006000
H       -5.428386000     -0.157228000      6.422733000
H       -4.272651000     -0.911021000      7.518572000
H       -4.617932000     -1.660530000      5.962530000
C        4.043604000      0.961829000      1.834879000
H        4.097922000      1.344481000      0.807206000
C        3.488062000     -0.472857000      1.802333000
H        3.384460000     -0.826781000      2.832012000
H        2.493638000     -0.486718000      1.351725000
C        4.436757000     -1.394660000      1.039542000
H        4.038467000     -2.410318000      1.048892000
H        4.483783000     -1.081064000     -0.009037000
C        5.837967000     -1.362357000      1.642012000
H        5.798294000     -1.753100000      2.663611000
H        6.508812000     -2.011641000      1.077005000
C        6.383689000      0.061972000      1.671010000
H        6.499319000      0.425171000      0.643760000
H        7.374750000      0.082576000      2.127201000
C        5.455723000      1.004738000      2.437485000
H        5.853853000      2.019688000      2.400422000
H        5.401159000      0.708675000      3.487252000
C        3.443540000      3.752994000      2.909943000
H        2.508882000      4.279760000      3.122874000
C        4.361319000      3.956740000      4.121066000
H        3.888539000      3.558777000      5.021401000
H        5.302132000      3.416799000      3.987724000
C        4.640358000      5.450175000      4.292049000
H        3.699625000      5.954001000      4.540747000
H        5.317121000      5.600551000      5.134664000
C        5.224156000      6.059473000      3.019629000
H        6.198386000      5.602011000      2.813740000
H        5.400760000      7.127206000      3.159748000
C        4.300495000      5.834182000      1.825001000
H        4.735265000      6.256093000      0.917319000
H        3.349312000      6.349009000      1.996917000
C        4.015382000      4.346439000      1.617920000
H        4.942182000      3.830076000      1.345862000
H        3.306261000      4.210707000      0.796488000
Cl       0.016255000     -0.752413000      3.979317000
Cl      -2.598150000      3.915115000      5.201292000
Cl       0.391752000      2.812559000      7.311906000
Cl       0.131725000      5.226530000      2.361283000
O        1.346166000      1.641221000      4.849373000
C        2.496001000      1.367943000      4.372086000
O        3.381751000      0.748005000      4.907711000
