80
BC33PH40OCl4
P        2.960094000      2.344082000      2.975471000
B       -0.012364000      2.211494000      4.389392000
C        1.382055000      2.126842000      2.064065000
C        1.402679000      2.045680000      0.667839000
H        2.348134000      2.070771000      0.139083000
C        0.235225000      1.920557000     -0.062968000
H        0.271006000      1.861282000     -1.143291000
C       -0.976789000      1.865815000      0.611516000
H       -1.903493000      1.765858000      0.060282000
C       -0.999093000      1.933595000      1.992216000
H       -1.960027000      1.894849000      2.491666000
C        0.160843000      2.067302000      2.765658000
C        0.399046000      3.714657000      4.945626000
C        0.829302000      3.925061000      6.267592000
C        1.387891000      5.096852000      6.746696000
H        1.701558000      5.149359000      7.781089000
C        1.509845000      6.201097000      5.914620000
C        0.983912000      6.093460000      4.639463000
H        0.978630000      6.948754000      3.975911000
C        0.437661000      4.896215000      4.191064000
C        2.175468000      7.462587000      6.383606000
H        3.258180000      7.390358000      6.254333000
H        1.979105000      7.643202000      7.440281000
H        1.830145000      8.324655000      5.813984000
C       -1.411066000      1.546489000      4.912174000
C       -2.452083000      2.211628000      5.577434000
C       -3.611141000      1.592411000      6.027437000
H       -4.357035000      2.188365000      6.536389000
C       -3.820269000      0.240160000      5.817259000
C       -2.851506000     -0.455535000      5.110048000
H       -2.985185000     -1.504371000      4.880142000
C       -1.707486000      0.191827000      4.671136000
C       -5.050540000     -0.449270000      6.335023000
H       -5.887767000      0.243875000      6.406850000
H       -4.869518000     -0.856552000      7.331968000
H       -5.339411000     -1.275921000      5.686737000
C        4.173723000      1.287872000      2.066036000
H        4.268626000      1.637530000      1.032103000
C        3.688032000     -0.166737000      2.048949000
H        3.546784000     -0.502045000      3.084371000
H        2.714883000     -0.236741000      1.560424000
C        4.697838000     -1.081925000      1.358544000
H        4.338068000     -2.112468000      1.379105000
H        4.776165000     -0.795376000      0.304353000
C        6.074520000     -0.984200000      2.009698000
H        6.012828000     -1.360024000      3.036794000
H        6.790936000     -1.617917000      1.483535000
C        6.563216000      0.461148000      2.036949000
H        6.713955000      0.811063000      1.009982000
H        7.530443000      0.527867000      2.539089000
C        5.553235000      1.373346000      2.732203000
H        5.919453000      2.401750000      2.733336000
H        5.455775000      1.074296000      3.782288000
C        3.432606000      4.111616000      2.641760000
H        2.464530000      4.619396000      2.592333000
C        4.201175000      4.701028000      3.831353000
H        3.616112000      4.557787000      4.744372000
H        5.144088000      4.160017000      3.969588000
C        4.497945000      6.184641000      3.620201000
H        3.551064000      6.736067000      3.619871000
H        5.089593000      6.568305000      4.454666000
C        5.219312000      6.429312000      2.297567000
H        6.200665000      5.942374000      2.325918000
H        5.400020000      7.496584000      2.155405000
C        4.415340000      5.866469000      1.128935000
H        4.939969000      6.036075000      0.186387000
H        3.458004000      6.394131000      1.061505000
C        4.146969000      4.372503000      1.314028000
H        5.101955000      3.837655000      1.287184000
H        3.543735000      3.998052000      0.484272000
Cl      -0.641092000     -0.823335000      3.722426000
Cl      -2.426846000      3.933345000      5.854580000
Cl       0.548654000      2.713163000      7.496179000
Cl      -0.297393000      5.019754000      2.612810000
O        1.177177000      1.300812000      5.024223000
H        2.056273000      1.583019000      4.614544000
C        1.277282000      0.195718000      5.922415000
H        0.298974000      0.029235000      6.362564000
H        1.593746000     -0.687904000      5.372794000
H        1.988365000      0.448561000      6.705713000
