79
BC33PH38O2Cl4
P        3.040386000      1.694539000      2.634726000
B        0.232175000      2.704626000      4.155061000
C        1.402339000      1.753281000      1.884331000
C        1.321632000      1.426519000      0.525139000
H        2.198685000      1.111639000     -0.023809000
C        0.116303000      1.496732000     -0.148212000
H        0.067078000      1.242162000     -1.198548000
C       -1.022388000      1.879031000      0.547218000
H       -1.978595000      1.923405000      0.041170000
C       -0.931848000      2.220301000      1.883569000
H       -1.828835000      2.543642000      2.399681000
C        0.274131000      2.206244000      2.592776000
C        0.349835000      4.358382000      4.366961000
C        0.437820000      4.876410000      5.675197000
C        0.691591000      6.195732000      5.997695000
H        0.734812000      6.485762000      7.039592000
C        0.874281000      7.139174000      4.994756000
C        0.786549000      6.697278000      3.689374000
H        0.912724000      7.390468000      2.867922000
C        0.537846000      5.355676000      3.403755000
C        1.154320000      8.576962000      5.328670000
H        2.092818000      8.671460000      5.877839000
H        0.364389000      8.990142000      5.957518000
H        1.224683000      9.183163000      4.426854000
C       -1.087485000      1.946234000      4.806743000
C       -2.301680000      2.540576000      5.177334000
C       -3.375406000      1.855290000      5.727930000
H       -4.267596000      2.406561000      5.994458000
C       -3.315244000      0.484331000      5.919476000
C       -2.172764000     -0.170985000      5.487840000
H       -2.095039000     -1.247773000      5.560633000
C       -1.123860000      0.548375000      4.936575000
C       -4.448109000     -0.264554000      6.562258000
H       -5.402406000      0.223237000      6.366294000
H       -4.313159000     -0.306882000      7.645090000
H       -4.500913000     -1.288786000      6.194445000
C        4.210837000      0.811790000      1.553192000
H        4.212118000      1.286770000      0.567179000
C        3.781639000     -0.661534000      1.431881000
H        3.760983000     -1.097272000      2.437343000
H        2.770116000     -0.747211000      1.034905000
C        4.765037000     -1.448710000      0.568546000
H        4.442721000     -2.489213000      0.505604000
H        4.749661000     -1.049006000     -0.451053000
C        6.180905000     -1.359801000      1.128708000
H        6.209672000     -1.846969000      2.108791000
H        6.879213000     -1.898335000      0.486087000
C        6.615334000      0.094392000      1.278301000
H        6.680455000      0.556617000      0.287584000
H        7.611284000      0.152657000      1.720331000
C        5.632547000      0.894002000      2.133723000
H        5.962197000      1.930460000      2.197171000
H        5.627369000      0.497082000      3.155419000
C        3.558738000      3.398226000      2.981690000
H        2.609565000      3.855626000      3.271540000
C        4.508220000      3.572608000      4.169497000
H        4.118857000      3.035973000      5.035957000
H        5.493886000      3.157725000      3.939329000
C        4.643525000      5.067164000      4.461324000
H        3.661811000      5.456127000      4.758227000
H        5.318239000      5.219869000      5.305216000
C        5.141995000      5.825640000      3.232546000
H        6.151735000      5.479965000      2.982966000
H        5.219440000      6.892208000      3.451901000
C        4.222549000      5.608345000      2.032156000
H        4.611074000      6.124735000      1.152442000
H        3.238466000      6.036027000      2.247911000
C        4.044708000      4.121284000      1.720210000
H        4.999271000      3.702207000      1.385330000
H        3.323046000      3.995278000      0.908096000
Cl       0.183090000     -0.458569000      4.331812000
Cl      -2.612087000      4.237265000      4.895504000
Cl       0.163513000      3.850711000      7.062435000
Cl       0.505096000      5.037531000      1.677695000
O        1.536364000      2.248364000      4.776601000
H        3.107041000      0.916742000      3.788699000
C        1.787612000      1.528475000      5.844361000
O        2.906499000      1.171399000      6.122400000
H        0.915704000      1.274337000      6.456953000
