56

P   6.3392     1.8390     0.7829 
C   6.6431     3.6207     1.1520 
C   6.2737     4.6319     0.2636 
H   5.7641     4.3732    -0.6582 
C   6.5289     5.9623     0.5572 
H   6.2312     6.7357    -0.1396 
C   7.1612     6.3042     1.7476 
H   7.3564     7.3434     1.9793 
C   7.5402     5.3096     2.6361 
H   8.0341     5.5689     3.5639 
C   7.2821     3.9764     2.3369 
H   7.5746     3.1994     3.0346 
C   4.7045     1.8824    -0.0356 
C   3.5507     2.1419     0.6105 
H   2.6432     2.1226     0.0016 
C   3.1898     2.5187     2.0409 
C   3.1017     4.0500     2.1267 
H   4.0793     4.5070     1.9678 
H   2.7357     4.3478     3.1128 
H   2.4125     4.4424     1.3753 
C   4.1499     1.9981     3.1100 
H   4.3346     0.9291     2.9929 
H   3.7090     2.1643     4.0960 
H   5.1083     2.5131     3.0938 
C   1.7993     1.9321     2.3229 
H   1.0666     2.2942     1.5986 
H   1.4607     2.2180     3.3204 
H   1.8188     0.8410     2.2695 
C   7.4769     1.6899    -0.6727 
H   7.2641     0.7271    -1.1464 
H   7.2628     2.4683    -1.4077 
C   8.9374     1.7527    -0.2381 
H   9.1637     2.7169     0.2204 
H   9.6061     1.6225    -1.0898 
H   9.1625     0.9754     0.4943 
Al  4.3887     1.4032    -1.9455 
C   2.4788     1.3569    -2.4776 
H   2.3989     0.8090    -3.4257 
H   1.8580     0.8004    -1.7651 
C   1.8851     2.7612    -2.6803 
H   1.8908     3.3383    -1.7519 
H   0.8534     2.7395    -3.0400 
H   2.4648     3.3365    -3.4072 
C   5.5835     1.8704    -3.4575 
H   5.9349     2.9013    -3.3312 
H   6.4953     1.2636    -3.4267 
C   4.9222     1.7402    -4.8379 
H   4.6060     0.7140    -5.0452 
H   5.5871     2.0379    -5.6525 
H   4.0231     2.3554    -4.9108 
C   4.3455    -1.4934    -2.6307 
H   4.7212    -1.1473    -3.5901 
H   4.7795    -2.4622    -2.3929 
H   3.2580    -1.5474    -2.6586 
O   4.7732    -0.5231    -1.6636 
H   4.5142    -0.7655    -0.7642 


































 
