52

P     5.7745     1.5486     0.6677 
C     6.7259     3.0776     0.6012 
C     6.3394     4.0978    -0.2654 
H     5.4715     3.9676    -0.9001 
C     7.0744     5.2733    -0.3118 
H     6.7776     6.0626    -0.9895 
C     8.1834     5.4364     0.5066 
H     8.7514     6.3568     0.4690 
C     8.5632     4.4251     1.3797 
H     9.4214     4.5564     2.0252 
C     7.8360     3.2462     1.4286 
H     8.1272     2.4620     2.1180 
C     4.1641     1.7637     0.0222 
C     3.1145     2.3218     0.6404 
H     2.2227     2.4230     0.0168 
C     2.8562     2.9087     2.0115 
C     2.6633     4.4197     1.8060 
H     3.5867     4.8818     1.4506 
H     2.3796     4.8924     2.7490 
H     1.8781     4.6180     1.0747 
C     3.9564     2.6815     3.0410 
H     4.1142     1.6178     3.2263 
H     3.6657     3.1409     3.9878 
H     4.8995     3.1436     2.7394 
C     1.5473     2.3042     2.5374 
H     0.7295     2.4745     1.8356 
H     1.2784     2.7615     3.4917 
H     1.6474     1.2277     2.6869 
C     6.6449     0.2417    -0.2289 
H     6.0161    -0.6463    -0.1312 
H     6.6326     0.5052    -1.2874 
C     8.0618     0.0051     0.2821 
H     8.6963     0.8744     0.1090 
H     8.5043    -0.8409    -0.2417 
H     8.0752    -0.2223     1.3500 
Al    3.9591     1.2283    -1.9885 
C     2.1373     1.8220    -2.5277 
H     1.3641     1.2685    -1.9826 
H     1.9904     2.8780    -2.2666 
C     1.9165     1.6508    -4.0380 
H     2.6342     2.2459    -4.6094 
H     0.9171     1.9533    -4.3644 
H     2.0546     0.6104    -4.3442 
C     5.4049     2.1625    -3.0382 
H     5.0285     3.1502    -3.3369 
H     6.3237     2.3732    -2.4758 
C     5.7765     1.3652    -4.2981 
H     6.1985     0.3915    -4.0349 
H     6.5026     1.8772    -4.9367 
H     4.8954     1.1586    -4.9112 
H     4.2057    -0.3716    -2.0137 
H     5.9366     1.1418     2.0014 
















 
