92

P       -3.409111000      3.151776000     13.526240000
F       -1.516160000     -0.968337000      7.846293000
F       -3.873704000     -1.317826000      9.082319000
F       -5.619586000      0.740587000      9.297691000
F       -4.968871000      3.180453000      8.302968000
F       -2.579839000      3.544298000      7.103555000
F        0.606336000      3.938489000      5.444026000
F        0.827674000      4.172768000      2.783427000
F       -0.076872000      2.200743000      1.170056000
F       -1.218093000     -0.012374000      2.226333000
F       -1.454563000     -0.255760000      4.890892000
B       -0.564064000      1.679127000      6.819885000
C       -1.982317000      1.299727000      7.422928000
C       -2.349361000      0.073169000      7.943334000
C       -3.559505000     -0.129867000      8.583085000
C       -4.449148000      0.924970000      8.705834000
C       -4.118643000      2.168865000      8.194442000
C       -2.896447000      2.329302000      7.568048000
C       -0.415953000      1.821480000      5.265732000
C        0.169143000      2.937850000      4.680208000
C        0.281860000      3.086128000      3.309896000
C       -0.187456000      2.079898000      2.480919000
C       -0.775115000      0.948593000      3.023817000
C       -0.889953000      0.845906000      4.397727000
C        0.531164000      2.096757000      7.835539000
H        0.173742000      3.121636000      8.041968000
C        0.525821000      1.271735000      9.161956000
H        0.183396000      0.258441000      8.947602000
C        2.040698000      1.135568000      9.470273000
C        2.602262000      2.541371000      9.767583000
H        3.593209000      2.468710000     10.216477000
H        1.975940000      3.069945000     10.485825000
C        2.654358000      3.235781000      8.379413000
H        2.096778000      4.172596000      8.350801000
H        3.678762000      3.463148000      8.085819000
C        2.029049000      2.176898000      7.458883000
H        2.224307000      2.330393000      6.397663000
C        2.593256000      0.860063000      8.034750000
C        2.044653000     -0.385200000      7.336374000
H        0.970937000     -0.362520000      7.144280000
H        2.249576000     -1.283932000      7.922756000
H        2.539278000     -0.507042000      6.370441000
C        4.118689000      0.760243000      7.984847000
H        4.442812000     -0.212056000      8.361855000
H        4.624745000      1.525626000      8.569283000
H        4.465958000      0.842755000      6.952473000
C        2.352779000      0.107989000     10.535180000
H        3.431500000     -0.001118000     10.664850000
H        1.937444000     -0.870346000     10.280729000
H        1.930667000      0.408402000     11.496865000
C       -0.375607000      1.759386000     10.266644000
C       -0.995113000      0.808010000     11.081462000
H       -0.790790000     -0.244079000     10.909693000
C       -1.881527000      1.174019000     12.079220000
H       -2.345630000      0.397331000     12.670514000
C       -2.196968000      2.517296000     12.301970000
C       -1.552926000      3.470317000     11.512180000
H       -1.747607000      4.523639000     11.682521000
C       -0.661114000      3.098533000     10.512186000
H       -0.198747000      3.877381000      9.917137000
C       -2.860446000      2.436875000     15.182749000
C       -1.348000000      2.677360000     15.263709000
H       -1.093099000      3.710818000     15.015675000
H       -0.797583000      2.022047000     14.588354000
H       -1.008851000      2.482220000     16.284553000
C       -3.150681000      0.963554000     15.463080000
H       -2.745185000      0.703979000     16.445867000
H       -2.682488000      0.301568000     14.735349000
H       -4.219978000      0.754012000     15.487120000
C       -3.531950000      3.289856000     16.268969000
H       -3.166562000      2.975861000     17.250697000
H       -4.616412000      3.181882000     16.268150000
H       -3.296339000      4.347305000     16.139785000
C       -5.031674000      2.382938000     12.954538000
C       -5.027587000      0.897169000     12.592751000
H       -4.695294000      0.259531000     13.410419000
H       -4.400046000      0.702276000     11.723067000
H       -6.045721000      0.596956000     12.327930000
C       -6.097363000      2.649252000     14.021338000
H       -6.093246000      3.693621000     14.341393000
H       -5.961788000      2.018034000     14.900208000
H       -7.084250000      2.428391000     13.605683000
C       -5.396859000      3.172919000     11.690728000
H       -6.318492000      2.772076000     11.260440000
H       -4.612066000      3.092956000     10.933995000
H       -5.549206000      4.230578000     11.910392000
O       -2.838694000      6.433543000     12.798621000
H       -3.071720000      5.606391000     13.248577000
C       -3.736402000      6.606566000     11.726542000
H       -3.441434000      7.509180000     11.193225000
H       -3.707222000      5.765303000     11.023102000
H       -4.768501000      6.731903000     12.070525000


































 
