89

P   -3.5231     3.2569    13.3491 
F   -1.3663    -1.1799     7.3236 
F   -3.7201    -1.7931     8.4579 
F   -5.5320     0.1500     8.9745 
F   -4.9686     2.7308     8.3494 
F   -2.5949     3.3503     7.2247 
F    0.7581     3.9392     5.5419 
F    1.0660     4.3941     2.9248 
F    0.1677     2.5931     1.1196 
F   -1.0557     0.3269     1.9451 
F   -1.3808    -0.1419     4.5633 
B   -0.5066     1.6023     6.6893 
C   -1.9184     1.1055     7.2183 
C   -2.2422    -0.1956     7.5538 
C   -3.4464    -0.5334     8.1451 
C   -4.3714     0.4607     8.4174 
C   -4.0832     1.7773     8.0984 
C   -2.8669     2.0710     7.5088 
C   -0.3068     1.8679     5.1575 
C    0.3213     3.0162     4.6860 
C    0.4797     3.2798     3.3379 
C    0.0139     2.3619     2.4108 
C   -0.6158     1.2034     2.8359 
C   -0.7755     0.9842     4.1916 
C    0.5315     2.0013     7.7721 
H    0.1718     3.0293     7.9595 
C    0.4386     1.1737     9.0906 
H    0.0815     0.1682     8.8573 
C    1.9315     0.9990     9.4805 
C    2.5134     2.3837     9.8290 
H    3.4843     2.2745    10.3128 
H    1.8762     2.9140    10.5351 
C    2.6384     3.1025     8.4579 
H    2.0904     4.0447     8.4190 
H    3.6778     3.3267     8.2194 
C    2.0508     2.0670     7.4858 
H    2.3098     2.2323     6.4400 
C    2.5600     0.7327     8.0738 
C    2.0321    -0.4930     7.3286 
H    0.9737    -0.4458     7.0722 
H    2.1822    -1.4023     7.9153 
H    2.5826    -0.6148     6.3934 
C    4.0842     0.6071     8.1058 
H    4.3708    -0.3704     8.4996 
H    4.5735     1.3643     8.7143 
H    4.4862     0.6812     7.0929 
C    2.1559    -0.0507    10.5459 
H    3.2217    -0.1871    10.7406 
H    1.7348    -1.0151    10.2512 
H    1.6808     0.2458    11.4839 
C   -0.5065     1.6940    10.1433 
C   -1.2640     0.7771    10.8767 
H   -1.1492    -0.2827    10.6720 
C   -2.1599     1.1890    11.8490 
H   -2.7173     0.4386    12.3925 
C   -2.3495     2.5456    12.1256 
C   -1.6002     3.4610    11.3868 
H   -1.7382     4.5208    11.5670 
C   -0.6943     3.0456    10.4182 
H   -0.1443     3.7989     9.8663 
C   -2.7900     2.6955    14.9933 
C   -1.5669     3.6016    15.1933 
H   -1.8560     4.6530    15.2451 
H   -0.8432     3.4829    14.3840 
H   -1.0699     3.3402    16.1318 
C   -2.3253     1.2428    15.0911 
H   -1.9540     1.0559    16.1035 
H   -1.5070     1.0412    14.3999 
H   -3.1253     0.5298    14.8972 
C   -3.7973     2.9970    16.1067 
H   -3.3030     2.8904    17.0765 
H   -4.6426     2.3087    16.0921 
H   -4.1806     4.0172    16.0343 
C   -5.1653     2.3829    13.0192 
C   -5.3518     0.9479    13.5108 
H   -5.2816     0.8717    14.5955 
H   -4.6364     0.2561    13.0684 
H   -6.3506     0.6048    13.2238 
C   -6.2488     3.2645    13.6589 
H   -6.1994     4.2858    13.2788 
H   -6.1598     3.3071    14.7444 
H   -7.2345     2.8561    13.4189 
C   -5.3639     2.4225    11.4999 
H   -6.3900     2.1335    11.2575 
H   -4.6895     1.7335    10.9903 
H   -5.1906     3.4233    11.0973 
O   -4.2843     6.4755    14.5273 
O   -2.8020     6.7067    12.7709 
C   -3.5451     6.5670    13.6441 





































 
