91

P       -3.415875000      3.140846000     13.570141000
F       -1.567248000     -0.998109000      8.043818000
F       -3.943732000     -1.300164000      9.254195000
F       -5.725667000      0.739841000      9.289684000
F       -5.089835000      3.115831000      8.151906000
F       -2.679756000      3.437809000      6.976917000
F        0.482410000      3.821403000      5.384774000
F        0.698490000      3.949194000      2.715371000
F       -0.160016000      1.890599000      1.187077000
F       -1.248539000     -0.302749000      2.337038000
F       -1.478530000     -0.439026000      5.010851000
B       -0.634836000      1.593736000      6.854701000
C       -2.053945000      1.232195000      7.465497000
C       -2.413716000      0.037253000      8.059604000
C       -3.635148000     -0.142364000      8.685041000
C       -4.543734000      0.902948000      8.714739000
C       -4.221345000      2.115244000      8.127953000
C       -2.987835000      2.253604000      7.518826000
C       -0.489870000      1.676252000      5.295180000
C        0.068528000      2.780349000      4.663178000
C        0.177860000      2.873344000      3.287680000
C       -0.267727000      1.822413000      2.502214000
C       -0.828414000      0.701407000      3.092828000
C       -0.940521000      0.654050000      4.470016000
C        0.462106000      2.054555000      7.849177000
H        0.089865000      3.078174000      8.033938000
C        0.487769000      1.263291000      9.196161000
H        0.163671000      0.238677000      9.011888000
C        2.009099000      1.164792000      9.489067000
C        2.544394000      2.589698000      9.742384000
H        3.540250000      2.550399000     10.184665000
H        1.911785000      3.125019000     10.450280000
C        2.569849000      3.246248000      8.335294000
H        1.995513000      4.172004000      8.287373000
H        3.586932000      3.482883000      8.024024000
C        1.953612000      2.151453000      7.451739000
H        2.133329000      2.279813000      6.384513000
C        2.549738000      0.861546000      8.055078000
C        2.016556000     -0.412190000      7.397026000
H        0.939581000     -0.416619000      7.221913000
H        2.249745000     -1.291131000      8.002561000
H        2.498486000     -0.548281000      6.426546000
C        4.076077000      0.789542000      7.988985000
H        4.423582000     -0.167155000      8.384627000
H        4.573442000      1.578161000      8.549577000
H        4.409793000      0.854653000      6.950886000
C        2.356022000      0.172503000     10.576462000
H        3.438483000      0.088279000     10.693061000
H        1.957036000     -0.820411000     10.354108000
H        1.941703000      0.490188000     11.535927000
C       -0.405398000      1.758194000     10.304193000
C       -0.966285000      0.812884000     11.168184000
H       -0.730972000     -0.236639000     11.023924000
C       -1.836030000      1.182659000     12.178500000
H       -2.262218000      0.412848000     12.807652000
C       -2.188016000      2.521734000     12.364036000
C       -1.611695000      3.471086000     11.520734000
H       -1.867239000      4.518193000     11.640584000
C       -0.736567000      3.093744000     10.507962000
H       -0.325989000      3.866883000      9.869284000
C       -3.014343000      2.331119000     15.223402000
C       -1.494491000      2.434604000     15.396295000
H       -1.136131000      3.446117000     15.190351000
H       -0.963113000      1.748324000     14.737065000
H       -1.235072000      2.189112000     16.429589000
C       -3.451442000      0.884241000     15.448672000
H       -3.116430000      0.566532000     16.440736000
H       -3.019120000      0.195288000     14.724370000
H       -4.535558000      0.777358000     15.422278000
C       -3.673902000      3.213100000     16.295037000
H       -3.416919000      2.829578000     17.286323000
H       -4.760943000      3.219529000     16.211616000
H       -3.324510000      4.244641000     16.228047000
C       -5.035086000      2.498549000     12.858656000
C       -5.081015000      1.020315000     12.472844000
H       -4.900830000      0.355713000     13.315916000
H       -4.355272000      0.791261000     11.691513000
H       -6.072126000      0.789745000     12.072107000
C       -6.160343000      2.816339000     13.847250000
H       -6.128012000      3.859772000     14.170046000
H       -6.119630000      2.179845000     14.731900000
H       -7.124676000      2.644496000     13.361739000
C       -5.248695000      3.330723000     11.586273000
H       -6.187113000      3.033063000     11.110843000
H       -4.441783000      3.170605000     10.867497000
H       -5.296427000      4.399431000     11.804152000
C       -3.391042000      7.115279000     12.871853000
O       -2.809109000      6.689047000     11.913740000
O       -3.828925000      6.398271000     13.893506000
H       -3.632253000      8.177420000     13.011116000
H       -3.611543000      5.439813000     13.749302000






























































