89

P    -3.4419     3.1915    13.4314 
F    -1.4583    -1.0259     7.8706 
F    -3.8267    -1.3760     9.0847 
F    -5.6110     0.6579     9.2073 
F    -4.9889     3.0733     8.1412 
F    -2.5881     3.4409     6.9646 
F     0.6026     3.8474     5.3420 
F     0.8500     4.0078     2.6780 
F     0.0040     1.9710     1.1140 
F    -1.1041    -0.2333     2.2231 
F    -1.3658    -0.4029     4.8913 
B    -0.5368     1.6054     6.7715 
C    -1.9560     1.2196     7.3683 
C    -2.3097     0.0041     7.9229 
C    -3.5256    -0.1994     8.5516 
C    -4.4352     0.8428     8.6264 
C    -4.1190     2.0748     8.0787 
C    -2.8904     2.2367     7.4655 
C    -0.3741     1.7055     5.2152 
C     0.1947     2.8160     4.6034 
C     0.3202     2.9260     3.2305 
C    -0.1191     1.8864     2.4267 
C    -0.6898     0.7597     2.9965 
C    -0.8182     0.6952     4.3716 
C     0.5413     2.0689     7.7855 
H     0.1646     3.0917     7.9658 
C     0.5402     1.2748     9.1308 
H     0.2162     0.2513     8.9384 
C     2.0551     1.1702     9.4522 
C     2.5923     2.5910     9.7218 
H     3.5818     2.5439    10.1773 
H     1.9539     3.1249    10.4252 
C     2.6412     3.2554     8.3190 
H     2.0674     4.1814     8.2665 
H     3.6633     3.4945     8.0266 
C     2.0404     2.1659     7.4179 
H     2.2412     2.2991     6.3550 
C     2.6221     0.8718     8.0269 
C     2.0990    -0.3979     7.3533 
H     1.0257    -0.3992     7.1572 
H     2.3179    -1.2799     7.9598 
H     2.5996    -0.5313     6.3920 
C     4.1493     0.7963     7.9889 
H     4.4871    -0.1609     8.3915 
H     4.6384     1.5842     8.5577 
H     4.5019     0.8597     6.9570 
C     2.3755     0.1717    10.5419 
H     3.4549     0.0826    10.6815 
H     1.9774    -0.8186    10.3065 
H     1.9417     0.4868    11.4936 
C    -0.3760     1.7729    10.2185 
C    -0.9875     0.8298    11.0489 
H    -0.7689    -0.2227    10.8990 
C    -1.8831     1.2046    12.0350 
H    -2.3415     0.4349    12.6401 
C    -2.2143     2.5481    12.2299 
C    -1.5794     3.4931    11.4243 
H    -1.7904     4.5460    11.5737 
C    -0.6795     3.1132    10.4350 
H    -0.2236     3.8854     9.8265 
C    -2.9318     2.4843    15.1024 
C    -1.4177     2.7078    15.2065 
H    -1.1466     3.7355    14.9511 
H    -0.8640     2.0358    14.5504 
H    -1.1006     2.5203    16.2360 
C    -3.2514     1.0202    15.3974 
H    -2.8624     0.7661    16.3883 
H    -2.7870     0.3405    14.6837 
H    -4.3246     0.8296    15.4109 
C    -3.6082     3.3646    16.1641 
H    -3.2786     3.0484    17.1577 
H    -4.6954     3.2888    16.1342 
H    -3.3337     4.4126    16.0325 
C    -5.0558     2.4368    12.8228 
C    -5.0574     0.9454    12.4855 
H    -4.7690     0.3183    13.3277 
H    -4.3952     0.7272    11.6476 
H    -6.0671     0.6534    12.1822 
C    -6.1477     2.7313    13.8549 
H    -6.1455     3.7820    14.1533 
H    -6.0375     2.1184    14.7503 
H    -7.1250     2.5066    13.4192 
C    -5.3716     3.2109    11.5357 
H    -6.3024     2.8364    11.1014 
H    -4.5800     3.0809    10.7938 
H    -5.4835     4.2793    11.7271 
O    -2.0887     6.2361    13.6888 
H    -2.6032     7.0348    13.8276 
H    -2.7342     5.5149    13.6100 




























 
