72

B    4.6274     8.5140    10.6275 
H    5.7285     8.0347    10.8031 
C    4.6549    10.0938    11.0833 
C    3.8241    10.5657    12.1404 
H    3.1380     9.8691    12.6059 
C    3.8465    11.8561    12.5776 
H    3.1947    12.1765    13.3824 
C    4.7165    12.8045    11.9902 
C    4.7724    14.1452    12.4396 
H    4.1222    14.4440    13.2534 
C    5.6244    15.0443    11.8634 
H    5.6590    16.0678    12.2129 
C    6.4610    14.6357    10.8038 
H    7.1319    15.3508    10.3453 
C    6.4244    13.3473    10.3449 
H    7.0660    13.0550     9.5226 
C    5.5509    12.3887    10.9232 
C    5.4943    11.0252    10.4894 
C    6.3878    10.6118     9.3629 
C    7.4879     9.8218     9.5857 
C    8.3284     9.3709     8.5512 
H    9.1708     8.7271     8.7591 
C    8.0480     9.7271     7.2647 
H    8.6708     9.3702     6.4544 
C    6.9345    10.5463     6.9651 
C    6.6156    10.8939     5.6301 
H    7.2465    10.5228     4.8317 
C    5.5243    11.6675     5.3556 
H    5.2803    11.9192     4.3320 
C    4.7005    12.1302     6.4041 
H    3.8289    12.7286     6.1749 
C    4.9773    11.8034     7.7019 
H    4.3244    12.1339     8.4993 
C    6.1029    11.0024     8.0195 
N    7.7379     9.4110    10.9846 
H    6.7868     9.2795    11.3652 
C    8.3815     8.0785    11.1216 
H    9.4158     8.1270    10.7986 
H    7.8188     7.3769    10.5111 
H    8.3286     7.7843    12.1666 
C    8.3837    10.5110    11.8194 
H    7.9302    11.4243    11.4396 
C    9.8816    10.5653    11.5959 
H   10.1281    10.5815    10.5328 
H   10.3957     9.7304    12.0729 
H   10.2618    11.4848    12.0392 
C    7.9788    10.3343    13.2709 
H    6.8912    10.2959    13.3694 
H    8.3387    11.1901    13.8413 
H    8.4091     9.4347    13.7128 
C    4.3515     8.3781     9.0298 
C    5.2130     7.6895     8.1903 
F    6.2276     6.9623     8.6951 
C    5.1315     7.7300     6.8086 
F    6.0208     7.0904     6.0486 
C    4.1337     8.4774     6.2118 
F    4.0487     8.5486     4.8870 
C    3.2308     9.1592     7.0078 
F    2.2857     9.9035     6.4385 
C    3.3574     9.0954     8.3839 
F    2.4918     9.8208     9.1013 
C    3.6884     7.6161    11.6070 
C    4.1452     7.3744    12.8956 
F    5.3146     7.9165    13.2970 
C    3.4751     6.6045    13.8263 
F    3.9699     6.4104    15.0477 
C    2.2674     6.0275    13.4719 
F    1.6000     5.2816    14.3454 
C    1.7657     6.2366    12.2017 
F    0.6062     5.6848    11.8553 
C    2.4759     7.0205    11.3023 
F    1.9225     7.1754    10.0958 





































