75

B        4.443694000      8.923954000     10.584226000
C        4.700341000     10.395238000     11.238983000
C        3.941041000     10.732795000     12.394835000
H        3.330348000      9.967609000     12.858515000
C        3.927340000     11.985275000     12.930988000
H        3.340535000     12.200507000     13.816134000
C        4.644734000     13.032565000     12.312323000
C        4.592615000     14.363396000     12.794715000
H        3.997114000     14.570550000     13.675964000
C        5.266123000     15.365592000     12.158036000
H        5.215115000     16.380775000     12.529422000
C        6.025003000     15.078895000     11.001944000
H        6.543091000     15.879380000     10.489733000
C        6.104923000     13.801051000     10.524580000
H        6.689059000     13.589689000      9.636873000
C        5.425329000     12.733568000     11.169561000
C        5.494762000     11.389149000     10.687328000
C        6.411973000     11.067437000      9.546976000
C        7.671302000     10.517420000      9.771757000
C        8.392383000      9.992252000      8.661320000
H        9.385701000      9.592352000      8.822104000
C        7.864525000      9.988333000      7.397129000
H        8.430321000      9.571319000      6.571198000
C        6.609174000     10.580061000      7.137397000
C        6.049178000     10.605700000      5.836105000
H        6.598430000     10.141417000      5.025617000
C        4.845901000     11.206557000      5.606851000
H        4.422078000     11.221631000      4.611385000
C        4.148551000     11.812700000      6.677472000
H        3.197786000     12.295716000      6.487939000
C        4.652664000     11.784778000      7.945758000
H        4.101416000     12.238751000      8.759287000
C        5.902278000     11.162354000      8.222166000
N        8.188339000     10.353477000     11.061501000
C        9.150715000      9.298207000     11.288859000
H        8.815364000      8.371155000     10.824668000
H        9.223779000      9.115779000     12.360916000
H       10.160512000      9.519483000     10.918392000
C        8.347337000     11.530065000     11.934732000
H        7.810190000     12.339347000     11.453495000
C        9.806981000     11.974438000     12.037908000
H       10.250071000     12.097657000     11.047513000
H       10.411004000     11.261636000     12.602219000
H        9.858675000     12.932866000     12.555249000
C        7.731309000     11.295804000     13.307040000
H        6.680152000     11.023437000     13.214099000
H        7.806725000     12.202248000     13.910326000
H        8.248873000     10.496117000     13.842051000
C        3.454704000      9.021676000      9.277656000
C        3.706256000      8.500294000      8.015623000
F        4.775304000      7.714077000      7.771390000
C        2.895919000      8.722247000      6.913741000
F        3.213487000      8.212824000      5.728152000
C        1.754726000      9.484387000      7.051159000
F        0.977746000      9.726660000      6.004050000
C        1.433913000      9.994575000      8.296060000
F        0.327736000     10.714020000      8.449111000
C        2.273374000      9.749765000      9.366024000
F        1.884486000     10.241263000     10.545321000
C        4.018717000      7.814684000     11.705759000
C        4.912914000      7.531713000     12.734027000
F        6.125715000      8.104770000     12.726914000
C        4.641867000      6.668145000     13.778550000
F        5.541457000      6.434228000     14.726522000
C        3.408598000      6.039536000     13.825605000
F        3.122302000      5.207505000     14.814750000
C        2.485524000      6.281206000     12.826437000
F        1.305387000      5.676162000     12.861870000
C        2.803069000      7.150739000     11.791339000
F        1.856180000      7.320748000     10.868355000
C        6.294194000      7.318671000      9.884242000
O        5.809206000      8.438122000      9.966135000
O        7.316103000      7.085778000      9.134488000
H        5.905141000      6.455715000     10.425417000
H        7.572401000      7.917672000      8.666034000

























