42

B   6.3515    14.3970     7.0316 
C   6.1214    14.3455     8.6265 
C   5.5457    13.7383     9.7362 
H   4.9234    12.8589     9.6427 
C   5.8019    14.2889    10.9874 
H   5.3658    13.8345    11.8680 
C   6.6132    15.4147    11.1458 
H   6.7883    15.8090    12.1382 
C   7.1987    16.0350    10.0481 
H   7.8293    16.9083    10.1587 
C   6.9078    15.4505     8.8309 
N   7.3156    15.8010     7.4654 
C   6.8666    17.1640     7.1122 
H   5.7800    17.2018     7.1435 
H   7.2192    17.4187     6.1184 
H   7.2741    17.8666     7.8407 
C   8.7784    15.6960     7.2833 
H   9.2699    16.4667     7.8793 
H   9.0202    15.8345     6.2320 
H   9.1103    14.7161     7.6170 
C   5.0364    14.6820     6.1208 
C   3.9361    13.8667     6.3739 
F   4.0098    12.9329     7.3281 
C   2.7476    13.9304     5.6703 
F   1.7365    13.1233     5.9672 
C   2.6212    14.8436     4.6389 
F   1.4924    14.9267     3.9508 
C   3.6912    15.6601     4.3302 
F   3.5899    16.5339     3.3348 
C   4.8672    15.5580     5.0582 
F   5.8530    16.3745     4.6673 
C   7.2706    13.2408     6.3699 
C   7.4013    11.9707     6.9150 
F   6.7879    11.6467     8.0531 
C   8.1512    10.9668     6.3192 
F   8.2436     9.7676     6.8809 
C   8.8068    11.2179     5.1288 
F   9.5297    10.2709     4.5502 
C   8.6992    12.4680     4.5432 
F   9.3232    12.7201     3.3984 
C   7.9349    13.4354     5.1670 
F   7.8520    14.6267     4.5584 
 
