44

B  6.2350    14.4167     6.4149 
C  6.3109    14.7808     8.0081 
C  5.3309    14.4319     8.9437 
H  4.4455    13.9130     8.5957 
C  5.4586    14.7294    10.2909 
H  4.6768    14.4412    10.9817 
C  6.5825    15.3973    10.7647 
H  6.6829    15.6315    11.8157 
C  7.5775    15.7639     9.8752 
H  8.4589    16.2876    10.2265 
C  7.4116    15.4410     8.5376 
N  8.4708    15.8292     7.5750 
C  8.6015    17.3028     7.4412 
H  7.6226    17.7008     7.1840 
H  9.3225    17.5211     6.6561 
H  8.9364    17.7158     8.3891 
C  9.7700    15.1589     7.8325 
H 10.1764    15.5285     8.7707 
H 10.4467    15.3778     7.0095 
H  9.5903    14.0885     7.8986 
C  4.7008    14.3296     5.8900 
C  4.1177    13.3059     5.1592 
F  4.8212    12.2227     4.8076 
C  2.7999    13.3307     4.7258 
F  2.2957    12.3149     4.0311 
C  2.0063    14.4242     5.0119 
F  0.7436    14.4654     4.6033 
C  2.5467    15.4826     5.7206 
F  1.7993    16.5508     5.9880 
C  3.8648    15.4140     6.1315 
F  4.3412    16.4838     6.7873 
C  7.1585    13.0821     6.2055 
C  6.8009    11.8532     6.7460 
F  5.6412    11.7372     7.3982 
C  7.5787    10.7152     6.6452 
F  7.1803     9.5623     7.1701 
C  8.7985    10.7821     5.9897 
F  9.5650     9.7039     5.8896 
C  9.2122    11.9854     5.4534 
F 10.3920    12.0735     4.8427 
C  8.3893    13.0950     5.5741 
F  8.8819    14.2473     5.0610 
H  8.1061    15.4946     6.6665 
H  6.7374    15.3296     5.7732 



