45

 B                  6.13448300   14.63986600    6.42225800
 C                  6.06939500   15.07037500    8.00382900
 C                  5.05989700   14.65164100    8.87602300
 H                  4.26013700   14.03105000    8.49556900
 C                  5.04483200   14.99393500   10.21880000
 H                  4.24318600   14.64007900   10.85400800
 C                  6.05244000   15.78465300   10.75337400
 H                  6.05122500   16.04952400   11.80202300
 C                  7.06033800   16.24232200    9.92284900
 H                  7.85012200   16.86630000   10.32333300
 C                  7.03808300   15.88685600    8.58308000
 N                  8.12724800   16.38732500    7.71067800
 C                  8.27502400   17.86012500    7.74542200
 H                  7.30593400   18.30115400    7.52688000
 H                  8.99830500   18.15250100    6.98639400
 H                  8.62205000   18.18026700    8.72476000
 C                  9.40845200   15.68749300    7.95720700
 H                  9.76110900   15.92981100    8.95827200
 H                 10.13695300   16.00881600    7.21492300
 H                  9.23779700   14.61708200    7.87842600
 C                  4.66487100   14.19613400    5.84025300
 C                  4.10508900   12.97534300    6.19434600
 F                  4.75599200   12.16737200    7.04604700
 C                  2.88435300   12.51820200    5.73108900
 F                  2.40244700   11.34106800    6.11748300
 C                  2.15937300   13.30570300    4.85514700
 F                  0.98565600   12.89228000    4.39527300
 C                  2.67266300   14.52768800    4.46561700
 F                  1.98668800   15.29045100    3.61964500
 C                  3.89972400   14.94592300    4.95844000
 F                  4.32165200   16.13783500    4.51612100
 C                  7.17817300   13.37288900    6.14756800
 C                  7.75566100   12.53789700    7.09128700
 F                  7.51150700   12.70449300    8.39806700
 C                  8.61424900   11.49710900    6.76900800
 F                  9.14545700   10.73499700    7.72047600
 C                  8.92408600   11.25238200    5.44433500
 F                  9.74611000   10.26366800    5.11885300
 C                  8.37046000   12.05375600    4.46144900
 F                  8.65957600   11.83041700    3.18373300
 C                  7.52181900   13.07977100    4.83507900
 F                  7.00693100   13.81906800    3.83379800
 H                  7.76042900   16.16653800    6.72175300
 H                  6.70931100   15.74864200    4.76744900
 O                  6.68779400   15.84075200    5.72306600

