66

C        7.996688000      9.750268000      5.586073000
H        7.960566000      9.840899000      4.501073000
H        7.084170000     10.194669000      5.985222000
H        7.949957000      8.691268000      5.831823000
C       11.974864000     12.451596000      4.364949000
H       12.751958000     11.747967000      4.057076000
H       12.469774000     13.358385000      4.712354000
H       11.386895000     12.697868000      3.480498000
C        9.226319000     10.461379000      6.112721000
C       10.018199000     11.061968000      5.134685000
H        9.757051000     10.917173000      4.091383000
C       11.112043000     11.856508000      5.442383000
C       11.367680000     12.078478000      6.783447000
C       10.597141000     11.497868000      7.790433000
B        8.773036000      9.861540000      8.735823000
C        7.570920000     12.685859000      8.242749000
H        6.820083000     13.476481000      8.243182000
H        7.259566000     11.926777000      7.526393000
H        8.502049000     13.110091000      7.861234000
C        6.931145000     13.524740000     13.105674000
H        6.196619000     14.249848000     12.754777000
H        7.793270000     14.083266000     13.477909000
H        6.502620000     12.982193000     13.948712000
C        7.723222000     12.132321000      9.644109000
C        7.304090000     12.972635000     10.674270000
H        6.927480000     13.959475000     10.422920000
C        7.337658000     12.585590000     12.004125000
C        7.747132000     11.289330000     12.273967000
C        8.163444000     10.418354000     11.269408000
C        8.221221000     10.841171000      9.923465000
C        9.771612000      6.848514000      6.871808000
H        9.209696000      6.272601000      6.130220000
H       10.759257000      6.403913000      6.998715000
H        9.889177000      7.874453000      6.521615000
C        9.145643000      5.551964000      8.831483000
H        8.581362000      5.595268000      9.761244000
H       10.188103000      5.323228000      9.054035000
H        8.745016000      4.749579000      8.206356000
C        7.734119000      7.426835000      8.086770000
N        9.079915000      6.854664000      8.167661000
C        6.673573000      6.601033000      7.729610000
H        6.845914000      5.554981000      7.508627000
C        5.390489000      7.115031000      7.657792000
H        4.563306000      6.475696000      7.378620000
C        5.182155000      8.450360000      7.973970000
H        4.181884000      8.863893000      7.950993000
C        6.253019000      9.253257000      8.330282000
H        6.061165000     10.286256000      8.594665000
C        7.574582000      8.789561000      8.366881000
C        9.529540000     10.620488000      7.488486000
C       10.944921000     11.958672000      9.191336000
H       12.024740000     12.084756000      9.290797000
H       10.481356000     12.931357000      9.379438000
H       10.595208000     11.305364000      9.981418000
C        8.493620000      9.008994000     11.711381000
H        8.065457000      8.824984000     12.696679000
H        8.086882000      8.269673000     11.020658000
H        9.568750000      8.835616000     11.777223000
H        7.721471000     10.932227000     13.298995000
H       12.183668000     12.737404000      7.065198000
O        9.891727000      8.850705000      9.339664000
H        9.627571000      7.884309000      8.899049000
C       11.306054000      8.934553000      9.422288000
H       11.594075000      9.417989000     10.354465000
H       11.695896000      7.913726000      9.424598000
H       11.725910000      9.477119000      8.576090000
















 
