64

C    8.3425    10.7596     5.6524 
H    8.3787    11.0656     4.6073 
H    7.3734    11.0611     6.0524 
H    8.3576     9.6689     5.6812 
C   12.2436    13.8389     5.4305 
H   13.3031    13.6891     5.6430 
H   12.0071    14.8779     5.6708 
H   12.0860    13.7009     4.3610 
C    9.4913    11.3827     6.4142 
C   10.3135    12.2321     5.6702 
H   10.0971    12.3814     4.6171 
C   11.3895    12.8960     6.2326 
C   11.6382    12.6703     7.5784 
C   10.8447    11.8253     8.3493 
B    8.8605    10.1794     8.7979 
C    7.6938    13.0826     8.6609 
H    6.9905    13.9127     8.7326 
H    7.4149    12.4811     7.7965 
H    8.6821    13.4935     8.4487 
C    6.4218    13.0596    13.4692 
H    5.7700    13.8761    13.1579 
H    7.2264    13.4904    14.0700 
H    5.8513    12.3923    14.1160 
C    7.6692    12.2843     9.9465 
C    7.1100    12.9355    11.0467 
H    6.7608    13.9563    10.9260 
C    6.9769    12.3237    12.2813 
C    7.3704    10.9977    12.3726 
C    7.9241    10.3149    11.2931 
C    8.1438    10.9588    10.0546 
C    9.8465     6.6962     6.6635 
H    9.2994     5.7825     6.4509 
H   10.9057     6.4674     6.7788 
H    9.7032     7.4121     5.8579 
C    9.3768     6.2967     9.0240 
H    9.1932     6.8235     9.9563 
H   10.3567     5.8215     9.0434 
H    8.6021     5.5555     8.8472 
C    7.9817     7.8714     7.7721 
N    9.3614     7.3022     7.9274 
C    7.0067     7.0005     7.2893 
H    7.2424     5.9749     7.0337 
C    5.7099     7.4511     7.1407 
H    4.9462     6.7849     6.7626 
C    5.4013     8.7582     7.5047 
H    4.3839     9.1174     7.4170 
C    6.3897     9.5897     7.9942 
H    6.1284    10.5944     8.3071 
C    7.7287     9.1911     8.1276 
C    9.7236    11.1659     7.7871 
C   11.2612    11.6627     9.7944 
H   11.9162    12.4831    10.0876 
H   10.4117    11.6403    10.4733 
H   11.8039    10.7276     9.9406 
C    8.2189     8.8497    11.5136 
H    7.7834     8.5188    12.4564 
H    7.7801     8.2517    10.7120 
H    9.2893     8.6480    11.5315 
H    7.2269    10.4690    13.3100 
H   12.4789    13.1716     8.0489 
C   10.3795     8.4261     8.3095 
O    9.9126     9.1716     9.3046 
H   10.5407     8.9668     7.3679 
H   11.2804     7.8695     8.5887 




























 
