85

B    1.1061    -0.0670    10.6184 
C    0.0711    -1.2473    10.7154 
C    0.6352    -2.5245    10.6622 
H    1.7094    -2.6333    10.5497 
C   -0.1454    -3.6692    10.7337 
H    0.3198    -4.6447    10.6789 
C   -1.5165    -3.5513    10.8893 
H   -2.1383    -4.4343    10.9591 
C   -2.0863    -2.2894    10.9772 
H   -3.1549    -2.1952    11.1317 
C   -1.3162    -1.1350    10.8840 
C   -1.9894     0.2115    11.0573 
H   -1.4179     0.8018    11.7748 
H   -2.9710     0.0482    11.5193 
N   -2.0930     1.0125     9.8543 
C   -3.1232     0.7959     8.7916 
C   -3.9379     2.1218     8.8473 
C   -2.8282     3.1021     9.1605 
C   -2.7393     4.4675     9.0135 
H   -3.4954     5.0100     8.4564 
C   -1.6734     5.1481     9.6086 
H   -1.5773     6.2184     9.4862 
C   -0.7535     4.4539    10.3786 
H    0.0601     4.9856    10.8550 
C   -0.8447     3.0713    10.5401 
C   -1.8642     2.3950     9.8948 
C   -2.3070     0.6124     7.4924 
C   -1.7493    -0.6378     7.2164 
H   -1.8426    -1.4449     7.9338 
C   -1.0597    -0.8800     6.0384 
H   -0.6525    -1.8655     5.8515 
C   -0.8736     0.1382     5.1138 
H   -0.3407    -0.0498     4.1913 
C   -1.3380     1.4079     5.4136 
H   -1.1648     2.2272     4.7270 
C   -2.0406     1.6422     6.5902 
H   -2.3825     2.6461     6.7860 
C   -4.8144     2.1723    10.1266 
H   -5.6821     1.5186    10.0732 
H   -5.1748     3.1951    10.2445 
H   -4.2368     1.9238    11.0174 
C   -4.8634     2.2784     7.6296 
H   -4.4149     2.8855     6.8439 
H   -5.7614     2.8117     7.9501 
C    1.4767     0.5891     9.2441 
C    1.8733     1.9232     9.1310 
F    2.0242     2.6805    10.2181 
C    2.1511     2.5285     7.9224 
F    2.4804     3.8112     7.8623 
C    2.1303     1.7662     6.7663 
F    2.4363     2.3160     5.6050 
C    1.8267     0.4190     6.8355 
F    1.9187    -0.3320     5.7461 
C    1.4667    -0.1340     8.0505 
F    1.1967    -1.4359     8.0484 
C    1.9104     0.3241    11.9167 
C    3.2617     0.6754    11.8797 
F    3.9150     0.7402    10.7225 
C    4.0068     0.9343    13.0144 
F    5.2918     1.2468    12.9278 
C    3.3993     0.8610    14.2565 
F    4.0949     1.1142    15.3491 
C    2.0623     0.5168    14.3487 
F    1.4790     0.4488    15.5369 
C    1.3528     0.2435    13.1935 
F    0.0726    -0.0783    13.3544 
H   -0.1188     2.5470    11.1491 
C   -5.2637     0.9054     7.0476 
H   -6.2129     1.0096     6.5194 
H   -4.5277     0.6008     6.3036 
C   -5.3953    -0.1918     8.1140 
H   -6.1973     0.1228     8.7869 
C   -4.1081    -0.3635     8.9807 
H   -3.6385    -1.3189     8.7566 
H   -4.4111    -0.4147    10.0271 
C   -5.8622    -1.5463     7.5430 
H   -5.7780    -2.2654     8.3666 
C   -7.3300    -1.5076     7.1226 
H   -7.4801    -0.8375     6.2737 
H   -7.6686    -2.4989     6.8171 
H   -7.9709    -1.1689     7.9387 
C   -5.0002    -2.0538     6.3900 
H   -5.2777    -3.0770     6.1320 
H   -5.1417    -1.4408     5.4976 
H   -3.9369    -2.0433     6.6312 






 
