51

N        2.416194000      4.254761000      2.851736000
N        2.535233000      2.042654000      2.041242000
C        1.864625000      3.205960000      2.265512000
C       -0.151938000      2.210920000      1.243867000
H       -0.069290000      2.262883000      0.151811000
H       -1.205126000      2.322103000      1.500597000
C        0.393425000      0.886275000      1.738008000
H        0.196823000      0.788121000      2.807349000
H       -0.082521000      0.053490000      1.221599000
C        1.887232000      0.862559000      1.487446000
H        2.341163000     -0.010069000      1.962673000
H        2.092336000      0.792726000      0.411924000
C        3.974739000      1.940951000      2.226257000
H        4.366411000      1.313806000      1.421570000
H        4.198096000      1.440214000      3.174830000
C        4.592380000      3.320133000      2.190056000
H        4.518074000      3.730889000      1.180205000
H        5.646632000      3.268733000      2.460674000
C        3.838459000      4.208554000      3.158779000
H        3.994146000      3.849685000      4.183093000
H        4.217439000      5.226606000      3.112168000
C        0.485931000      5.005692000      4.555882000
H       -0.144559000      4.170818000      4.225541000
B        1.484630000      5.505321000      3.380445000
N        0.580984000      3.283859000      1.873716000
C        2.350608000      6.725392000      4.029349000
H        3.132626000      7.106101000      3.357778000
C        0.181381000      7.530655000      5.163548000
H       -0.585332000      8.305950000      5.078668000
H        0.532563000      7.587382000      6.193517000
C        3.045908000      6.375306000      5.364767000
H        3.362245000      7.302211000      5.858383000
H        3.972742000      5.836275000      5.159496000
C        2.227477000      5.545639000      6.374003000
H        2.918603000      5.053744000      7.065137000
H        1.623617000      6.205125000      6.995189000
C        1.307902000      4.492842000      5.745920000
H        0.651959000      4.095202000      6.528962000
H        1.912790000      3.643085000      5.403071000
C        1.341577000      7.876109000      4.220507000
H        1.854915000      8.763605000      4.607923000
H        0.929497000      8.151823000      3.246833000
C       -0.473704000      6.163044000      4.898216000
H       -1.100354000      5.900105000      5.759445000
H       -1.148886000      6.277242000      4.046074000
O        0.672465000      5.926225000      2.211318000
H        0.200082000      4.232810000      1.924583000
C        1.355819000      6.467414000      1.118770000
H        2.089905000      5.760185000      0.704753000
H        0.637143000      6.713232000      0.334180000
H        1.894085000      7.383391000      1.387761000








 
