47

N    1.6277     2.9610     3.8266 
N    2.8640     2.2125     1.9761 
C    1.9373     3.0260     2.5547 
C    1.8118     4.2730     0.4537 
H    2.6993     4.9169     0.5155 
H    1.0332     4.8292    -0.0654 
C    2.1485     2.9818    -0.2669 
H    1.2394     2.3873    -0.3683 
H    2.5476     3.1740    -1.2624 
C    3.1808     2.2322     0.5528 
H    3.2596     1.1951     0.2151 
H    4.1681     2.6903     0.4192 
C    3.6834     1.2964     2.7576 
H    4.7005     1.3394     2.3587 
H    3.3194     0.2727     2.6146 
C    3.6603     1.6667     4.2250 
H    4.2359     2.5805     4.3894 
H    4.1108     0.8689     4.8149 
C    2.2213     1.9072     4.6352 
H    1.6331     0.9875     4.5369 
H    2.1560     2.2218     5.6740 
C    1.3055     4.8349     5.6956 
H    1.6605     4.1519     6.4780 
B    0.5665     3.8887     4.5832 
N    1.3151     3.9271     1.7637 
C    0.3726     7.2482     3.2628 
H   -0.0911     7.7174     2.3972 
C    0.0577     7.1310     5.8445 
H   -0.6222     7.6513     6.5242 
H    0.9836     7.7125     5.8510 
C    1.6334     6.8668     3.0610 
H    2.0053     7.1031     2.0633 
H   -0.0777     4.5155     3.7712 
C    2.7001     6.1439     3.8424 
H    2.9736     5.2893     3.2114 
H    3.5889     6.7857     3.8092 
C    2.5589     5.6295     5.2810 
H    2.7111     6.4628     5.9754 
H    3.4350     4.9874     5.4239 
C   -0.5515     7.1901     4.4444 
H   -1.1732     8.0874     4.3769 
H   -1.2392     6.3477     4.3095 
C    0.2946     5.7399     6.4272 
H    0.6319     5.8902     7.4593 
H   -0.6678     5.2215     6.4935 
H    0.7239     4.5757     2.2702 
H   -0.1798     3.1133     5.1552 





















 
