48

N    2.5014     4.1982     2.8981 
N    2.5664     1.9843     2.0891 
C    1.9347     3.1744     2.2833 
C   -0.0264     2.2875     1.0901 
H    0.1868     2.3669     0.0170 
H   -1.0968     2.4388     1.2263 
C    0.4023     0.9269     1.6002 
H    0.0990     0.8198     2.6434 
H   -0.0616     0.1286     1.0220 
C    1.9098     0.8314     1.4885 
H    2.2762    -0.0581     2.0065 
H    2.2081     0.7422     0.4366 
C    3.9837     1.8161     2.3701 
H    4.3951     1.1585     1.6006 
H    4.1200     1.3194     3.3373 
C    4.6682     3.1631     2.3571 
H    4.6723     3.5645     1.3413 
H    5.7010     3.0653     2.6906 
C    3.9049     4.0976     3.2729 
H    3.9957     3.7494     4.3085 
H    4.3288     5.0974     3.2284 
C    0.5483     5.0474     4.5108 
H   -0.1001     4.2336     4.1641 
B    1.6235     5.4850     3.3642 
N    0.6706     3.3036     1.8415 
C    2.5049     6.6778     4.0488 
H    3.3162     7.0133     3.3888 
C    0.3194     7.5930     5.0736 
H   -0.4077     8.4000     4.9439 
H    0.6171     7.6439     6.1198 
C    3.1312     6.3192     5.4150 
H    3.4727     7.2366     5.9100 
H    4.0378     5.7334     5.2550 
C    2.2321     5.5453     6.3993 
H    2.8683     5.0332     7.1275 
H    1.6348     6.2423     6.9853 
C    1.2924     4.5249     5.7473 
H    0.5872     4.1693     6.5079 
H    1.8724     3.6437     5.4440 
C    1.5487     7.8787     4.1982 
H    2.0850     8.7342     4.6239 
H    1.2291     8.2074     3.2037 
C   -0.3775     6.2474     4.7955 
H   -1.0535     6.0260     5.6302 
H   -1.0293     6.3720     3.9224 
O    0.9716     5.9149     2.0903 
H    0.3939     6.6648     2.2372 
H    0.3685     4.2821     1.8069 




















 
