49

N     2.6810     4.2111     3.0049 
N     2.5523     2.1065     1.9674 
C     2.0328     3.3326     2.2676 
C    -0.0432     2.6911     1.1067 
H     0.0496     2.8185     0.0207 
H    -1.0780     2.9234     1.3728 
C     0.3099     1.2744     1.4995 
H     0.0746     1.1140     2.5534 
H    -0.2611     0.5608     0.9066 
C     1.7936     1.0793     1.2733 
H     2.1163     0.1133     1.6659 
H     2.0218     1.0921     0.2005 
C     3.9078     1.7585     2.3625 
H     4.2954     1.0592     1.6193 
H     3.9053     1.2473     3.3325 
C     4.7527     3.0108     2.4201 
H     4.8389     3.4340     1.4169 
H     5.7549     2.7791     2.7799 
C     4.0813     4.0060     3.3437 
H     4.1663     3.6684     4.3824 
H     4.5780     4.9721     3.2777 
C     0.8490     5.1982     4.6633 
H     0.1803     4.3622     4.4132 
B     1.8844     5.5385     3.4571 
N     0.8062     3.6374     1.7961 
C     2.8120     6.7521     3.9887 
H     3.5975     7.0108     3.2658 
C     0.6929     7.7806     5.0359 
H    -0.0268     8.5884     4.8759 
H     1.0389     7.9054     6.0614 
C     3.4988     6.4709     5.3433 
H     3.8972     7.4085     5.7491 
H     4.3744     5.8382     5.1818 
C     2.6297     5.8036     6.4273 
H     3.2878     5.3350     7.1652 
H     2.0754     6.5604     6.9797 
C     1.6404     4.7571     5.9023 
H     0.9635     4.4797     6.7189 
H     2.1881     3.8416     5.6448 
C     1.8757     7.9734     4.0764 
H     2.4396     8.8588     4.3916 
H     1.4921     8.1806     3.0754 
C    -0.0429     6.4356     4.8876 
H    -0.6932     6.2908     5.7591 
H    -0.7095     6.5205     4.0231 
C     0.2838     5.0291     1.7806 
O     1.1960     5.9380     2.1964 
H    -0.6317     5.0152     2.3943 
H    -0.0023     5.2351     0.7412 



















 
