82

P    3.0610     4.0712     4.5290 
C    2.5274     2.2987     4.3396 
H    2.2353     1.8501     5.2885 
H    1.6639     2.2701     3.6775 
C    3.6655     1.4735     3.7220 
H    4.5558     1.5593     4.3523 
H    3.3725     0.4196     3.7448 
C    4.0090     1.8666     2.2837 
H    4.2553     2.9311     2.2676 
C    2.8989     1.5743     1.2557 
H    1.9225     1.5767     1.7455 
H    3.0139     0.5586     0.8670 
C    4.2390     3.8779     5.9436 
C    3.8465     3.6408     7.2735 
C    4.8210     3.5316     8.2638 
H    4.5051     3.3502     9.2858 
C    6.1741     3.6485     7.9877 
C    6.5488     3.8826     6.6718 
H    7.6020     3.9834     6.4322 
C    5.6125     3.9996     5.6505 
C    2.4102     3.5251     7.7159 
H    2.3569     3.0015     8.6697 
H    1.7919     2.9917     6.9979 
H    1.9603     4.5121     7.8445 
C    7.2065     3.4993     9.0700 
H    8.0473     4.1738     8.9069 
H    7.6009     2.4808     9.0873 
H    6.7823     3.7077    10.0515 
C    6.1261     4.2585     4.2555 
H    7.2000     4.4386     4.2789 
H    5.6385     5.1183     3.7946 
H    5.9441     3.4054     3.5991 
C    1.7200     5.1207     5.2440 
C    0.3515     4.8056     5.3640 
C   -0.5216     5.7422     5.9047 
H   -1.5703     5.4793     5.9946 
C   -0.1061     6.9974     6.3266 
C    1.2308     7.3138     6.1614 
H    1.5827     8.2987     6.4492 
C    2.1430     6.4152     5.6149 
C   -0.2532     3.4986     4.9205 
H   -1.3242     3.5042     5.1149 
H    0.1745     2.6433     5.4420 
H   -0.1210     3.3389     3.8494 
C   -1.0865     7.9881     6.8884 
H   -0.5764     8.7825     7.4320 
H   -1.7901     7.5038     7.5662 
H   -1.6678     8.4506     6.0877 
C    3.5594     6.8997     5.4342 
H    3.5933     7.9851     5.5131 
H    3.9537     6.6199     4.4545 
H    4.2341     6.4810     6.1835 
B    2.8207     2.6860     0.0896 
C    2.4821     4.1359     0.7411 
F    4.6102     5.1642     0.4766 
C    3.3452     5.2010     0.9324 
F    3.8824     7.3396     1.7644 
C    2.9948     6.3615     1.6081 
F    1.3714     7.6000     2.7649 
C    1.7252     6.4946     2.1288 
F   -0.4056     5.5635     2.4606 
C    0.8259     5.4511     1.9787 
F    0.3201     3.3217     1.2216 
C    1.2259     4.3077     1.3157 
C    1.9482     2.2362    -1.2201 
C    0.8685     2.9027    -1.7849 
C    2.2930     1.0578    -1.8733 
C    0.1472     2.4094    -2.8638 
C    1.6134     0.5305    -2.9537 
C    0.5148     1.2127    -3.4475 
F    3.3950     0.3780    -1.4830 
F    2.0068    -0.6012    -3.5260 
F   -0.1584     0.7348    -4.4824 
F   -0.8833     3.0877    -3.3515 
F    0.4736     4.0930    -1.3315 
H    4.9258     1.3419     1.9953 
C    4.6327     3.4263    -1.7145 
H    3.9780     4.2911    -1.7579 
H    5.6716     3.7428    -1.6949 
H    4.4305     2.7595    -2.5508 
O    4.3449     2.7547    -0.4712 
H    4.6971     1.8531    -0.4730 


























 
