79

P    3.4758     3.4180     4.4561 
C    3.0130     1.6568     4.7708 
H    3.9963     1.2483     4.9931 
H    2.4974     1.6709     5.7300 
C    2.3156     0.7464     3.7438 
H    2.7689    -0.2410     3.8538 
H    1.2621     0.6327     4.0048 
C    2.4059     1.2320     2.3025 
H    3.4512     1.4518     2.0550 
C    1.4893     2.4465     2.0901 
H    1.1757     2.8391     3.0587 
H    0.5565     2.1170     1.6274 
C    4.8295     3.6244     5.6617 
C    4.7155     4.4455     6.8088 
C    5.8277     4.6089     7.6232 
H    5.7353     5.2392     8.5002 
C    7.0410     3.9832     7.3699 
C    7.1045     3.1228     6.2901 
H    8.0232     2.5795     6.0963 
C    6.0280     2.9143     5.4322 
C    3.4528     5.1312     7.2746 
H    3.5794     5.4320     8.3127 
H    2.5843     4.4770     7.2240 
H    3.2206     6.0241     6.6944 
C    8.2338     4.2293     8.2470 
H    8.9549     3.4168     8.1716 
H    7.9391     4.3389     9.2904 
H    8.7372     5.1512     7.9481 
C    6.2846     1.8760     4.3616 
H    7.1379     2.1834     3.7591 
H    5.4738     1.6982     3.6659 
H    6.5328     0.9286     4.8464 
C    2.2014     4.7078     4.6101 
C    0.8998     4.4760     5.0987 
C    0.0004     5.5342     5.1373 
H   -1.0048     5.3450     5.4945 
C    0.3398     6.8171     4.7340 
C    1.6356     7.0314     4.2913 
H    1.9314     8.0292     3.9853 
C    2.5792     6.0148     4.2209 
C    0.4074     3.1628     5.6479 
H   -0.6417     3.2538     5.9190 
H    0.9521     2.8801     6.5520 
H    0.4868     2.3496     4.9301 
C   -0.6477     7.9450     4.7958 
H   -0.4116     8.6092     5.6299 
H   -1.6626     7.5753     4.9280 
H   -0.6163     8.5415     3.8833 
C    3.9580     6.4240     3.7662 
H    4.0973     7.4836     3.9722 
H    4.0773     6.2823     2.6893 
H    4.7620     5.8840     4.2645 
B    2.1191     3.6332     1.2060 
C    1.2677     5.0373     1.2311 
F    3.0451     6.1671     0.1579 
C    1.8315     6.1995     0.7179 
F    1.8015     8.5154     0.2443 
C    1.2033     7.4337     0.7366 
F   -0.6878     8.7135     1.3118 
C   -0.0671     7.5371     1.2725 
F   -1.8934     6.4988     2.3184 
C   -0.6778     6.4074     1.7786 
F   -0.6825     4.1581     2.2661 
C   -0.0072     5.1953     1.7517 
C    2.3606     3.1102    -0.3292 
C    1.3121     3.1105    -1.2390 
C    3.5466     2.5742    -0.8116 
C    1.4214     2.6617    -2.5433 
C    3.7009     2.1137    -2.1104 
C    2.6328     2.1628    -2.9853 
F    4.6227     2.4467    -0.0237 
F    4.8639     1.6129    -2.5197 
F    2.7632     1.7214    -4.2311 
F    0.3788     2.6958    -3.3690 
F    0.1014     3.5493    -0.8632 
H    2.1216     0.4190     1.6333 
C    4.2851     3.7906     2.7036 
O    5.4750     3.9224     2.7267 
O    3.5107     4.0314     1.7306 



















 
