78

P    3.2442     3.4339     4.6342 
C    2.6044     1.7681     5.0341 
H    3.5612     1.2558     5.1841 
H    2.1196     1.7909     6.0099 
C    1.7972     0.9895     3.9788 
H    1.9612    -0.0671     4.2033 
H    0.7296     1.1706     4.1079 
C    2.1830     1.3195     2.5353 
H    3.2772     1.3450     2.4441 
C    1.5543     2.6412     2.0657 
H    1.2487     3.2262     2.9429 
H    0.6051     2.4185     1.5717 
C    4.7271     3.6367     5.6415 
C    4.6528     4.1563     6.9406 
C    5.8328     4.3224     7.6582 
H    5.7797     4.7243     8.6635 
C    7.0683     3.9852     7.1256 
C    7.1113     3.4530     5.8407 
H    8.0694     3.1745     5.4163 
C    5.9660     3.2659     5.0806 
C    3.3526     4.5490     7.5906 
H    3.4811     4.6277     8.6684 
H    2.5656     3.8164     7.4054 
H    2.9953     5.5106     7.2171 
C    8.3335     4.1642     7.9143 
H    9.0738     4.7193     7.3372 
H    8.7713     3.1949     8.1597 
H    8.1495     4.6991     8.8442 
C    6.1012     2.6856     3.6955 
H    7.1286     2.3750     3.5197 
H    5.8355     3.4063     2.9180 
H    5.4638     1.8109     3.5470 
C    2.2379     4.9284     4.6603 
C    0.9056     4.9803     5.0934 
C    0.2280     6.1908     5.0044 
H   -0.8106     6.2278     5.3105 
C    0.8311     7.3420     4.5182 
C    2.1556     7.2644     4.1054 
H    2.6348     8.1485     3.6991 
C    2.8757     6.0802     4.1466 
C    0.1585     3.7875     5.6229 
H   -0.8657     4.0657     5.8609 
H    0.6091     3.3920     6.5347 
H    0.1181     2.9872     4.8847 
C    0.0802     8.6371     4.4187 
H    0.4147     9.3321     5.1918 
H   -0.9908     8.4828     4.5355 
H    0.2548     9.1104     3.4517 
C    4.2865     6.0897     3.6166 
H    4.4853     7.0378     3.1199 
H    4.4442     5.3064     2.8715 
H    5.0216     5.9634     4.4141 
B    2.5100     3.5655     1.1192 
C    1.9938     5.1193     1.0040 
F    4.1577     5.7911     0.3362 
C    2.8949     6.1155     0.6499 
F    3.5140     8.3755     0.3130 
C    2.5892     7.4654     0.6220 
F    0.9937     9.1693     0.9481 
C    1.3078     7.8737     0.9439 
F   -0.8632     7.3109     1.6320 
C    0.3676     6.9240     1.2905 
F   -0.2535     4.7390     1.6713 
C    0.7229     5.5840     1.3129 
C    2.7111     2.8835    -0.3478 
C    1.7061     2.8884    -1.3033 
C    3.8705     2.2242    -0.7240 
C    1.8292     2.3042    -2.5519 
C    4.0400     1.6225    -1.9610 
C    3.0111     1.6654    -2.8831 
F    4.9097     2.1296     0.1226 
F    5.1778     1.0012    -2.2718 
F    3.1533     1.0924    -4.0750 
F    0.8310     2.3423    -3.4331 
F    0.5353     3.4812    -1.0283 
H    1.8633     0.5011     1.8886 
H    3.6876     3.3416     3.3160 
H    3.6300     3.6333     1.6065 
























