61

P    2.1360     6.1870     0.3815 
H    3.0611     5.4830    -0.4085 
C    3.3812     7.0913     1.4176 
C    3.8614     8.2929     1.0410 
H    4.5668     8.7611     1.7283 
C    3.5973     9.1455    -0.1848 
C    3.7375     8.3624    -1.4956 
H    4.6766     7.8063    -1.5216 
H    3.7325     9.0612    -2.3347 
H    2.9156     7.6647    -1.6469 
C    4.6179    10.2887    -0.1923 
H    5.6361     9.9026    -0.2773 
H    4.5507    10.8783     0.7245 
H    4.4355    10.9544    -1.0370 
C    2.1849     9.7411    -0.0674 
H    2.0007    10.4085    -0.9123 
H    2.0835    10.3181     0.8535 
H    1.4255     8.9596    -0.0729 
C    1.5564     4.7915     1.4234 
C    0.8841     5.0661     2.6214 
C    0.7118     6.4681     3.1386 
H    0.6306     7.2063     2.3388 
H    1.5601     6.7604     3.7645 
H   -0.1793     6.5378     3.7613 
C    0.4069     4.0151     3.4021 
H   -0.0884     4.2454     4.3394 
C    0.5601     2.6928     3.0206 
C    0.0547     1.5617     3.8714 
H   -0.2379     1.9130     4.8596 
H    0.8226     0.7966     3.9955 
H   -0.8126     1.0856     3.4094 
C    1.1890     2.4380     1.8052 
H    1.3040     1.4091     1.4786 
C    1.6828     3.4535     0.9972 
C    2.3324     3.0736    -0.3083 
H    2.2741     1.9968    -0.4587 
H    3.3865     3.3587    -0.3427 
H    1.8426     3.5589    -1.1549 
B    4.0019     6.5050     2.7082 
C    4.2248     4.9523     2.8530 
C    3.7251     4.2486     3.9388 
C    4.8434     4.2001     1.8670 
C    3.7876     2.8716     4.0302 
C    4.9566     2.8239     1.9392 
C    4.4111     2.1570     3.0222 
C    4.4489     7.4282     3.9084 
C    5.5747     7.1204     4.6722 
C    3.7602     8.5777     4.2973 
C    5.9994     7.8879     5.7408 
C    4.1465     9.3585     5.3724 
C    5.2750     9.0128     6.0950 
F    5.3571     4.8012     0.7897 
F    5.5480     2.1368     0.9689 
F    4.4650     0.8357     3.0841 
F    3.2426     2.2298     5.0554 
F    3.1107     4.9033     4.9284 
F    6.3219     6.0592     4.3734 
F    7.0868     7.5617     6.4246 
F    5.6609     9.7558     7.1164 
F    3.4490    10.4329     5.7153 
F    2.6578     8.9672     3.6594 


















 
