64

P    2.4493     4.7807     0.8507 
H    3.1565     3.9525    -0.0153 
C    3.4642     6.0182     1.6119 
C    4.0016     7.0935     1.0356 
H    4.5943     7.7252     1.6936 
C    3.9391     7.6342    -0.3775 
C    3.8044     6.5496    -1.4465 
H    4.5423     5.7568    -1.3013 
H    3.9723     6.9880    -2.4319 
H    2.8033     6.1185    -1.4685 
C    5.2394     8.4082    -0.6281 
H    6.1056     7.7467    -0.5632 
H    5.3655     9.2059     0.1058 
H    5.2259     8.8579    -1.6220 
C    2.7494     8.6016    -0.4649 
H    2.7359     9.0874    -1.4431 
H    2.8186     9.3778     0.2996 
H    1.8046     8.0694    -0.3337 
C    0.8997     5.1700     0.0389 
C    0.0155     6.0683     0.6599 
C    0.2965     6.6516     2.0149 
H    1.1385     7.3467     1.9931 
H    0.5337     5.8671     2.7365 
H   -0.5757     7.1832     2.3905 
C   -1.1601     6.3994     0.0006 
H   -1.8445     7.0942     0.4735 
C   -1.4855     5.8560    -1.2354 
C   -2.7780     6.2055    -1.9142 
H   -3.1272     7.1923    -1.6141 
H   -3.5512     5.4826    -1.6450 
H   -2.6713     6.1869    -2.9981 
C   -0.6076     4.9435    -1.8098 
H   -0.8622     4.4949    -2.7631 
C    0.5826     4.5766    -1.1976 
C    1.4546     3.5491    -1.8717 
H    0.9780     3.2012    -2.7854 
H    1.6144     2.6817    -1.2289 
H    2.4325     3.9529    -2.1436 
B    3.6816     5.5264     3.1993 
C    5.2406     5.0903     3.4530 
C    6.0109     5.3834     4.5699 
C    5.8732     4.2791     2.5207 
C    7.3205     4.9534     4.7271 
C    7.1729     3.8248     2.6327 
C    7.9091     4.1739     3.7505 
C    3.1086     6.6718     4.2165 
C    3.7842     7.8744     4.3833 
C    1.9281     6.5763     4.9415 
C    3.3423     8.9129     5.1793 
C    1.4437     7.5949     5.7512 
C    2.1521     8.7731     5.8711 
F    5.2003     3.8633     1.4273 
F    7.7135     3.0555     1.6926 
F    9.1583     3.7529     3.8877 
F    8.0110     5.2758     5.8145 
F    5.5162     6.0955     5.5850 
F    4.9659     8.0659     3.7734 
F    4.0473    10.0335     5.2934 
F    1.7012     9.7564     6.6378 
F    0.2972     7.4451     6.4069 
F    1.1635     5.4792     4.8949 
O    1.4831     2.7805     2.3965 
O    2.8788     4.2499     3.3655 
C    2.1851     3.7466     2.3974 

















 
