65

P     2.9299     6.0422    -0.4493 
H     3.7291     4.9278    -0.1584 
C     3.2657     6.9668     1.1333 
C     3.6704     8.2449     1.0821 
H     3.8802     8.7006     2.0487 
C     4.0622     9.1845    -0.0550 
C     5.3084     8.6167    -0.7505 
H     6.1027     8.4256    -0.0271 
H     5.6765     9.3340    -1.4879 
H     5.0843     7.6810    -1.2628 
C     4.4329    10.5319     0.5774 
H     5.2420    10.4126     1.3012 
H     3.5755    10.9701     1.0935 
H     4.7637    11.2344    -0.1891 
C     2.9624     9.4348    -1.0897 
H     3.3084    10.1891    -1.8003 
H     2.0548     9.8152    -0.6170 
H     2.7212     8.5343    -1.6492 
C     1.2951     5.1943    -0.1996 
C     0.1221     5.9498    -0.3996 
C     0.1903     7.4142    -0.7305 
H     0.6739     7.5641    -1.6976 
H     0.7823     7.9715    -0.0008 
H    -0.8061     7.8509    -0.7722 
C    -1.1267     5.3465    -0.2809 
H    -2.0160     5.9513    -0.4217 
C    -1.2607     3.9928    -0.0051 
C    -2.6127     3.3419     0.0718 
H    -3.3868     4.0657     0.3238 
H    -2.6260     2.5457     0.8158 
H    -2.8749     2.8967    -0.8904 
C    -0.0985     3.2483     0.1631 
H    -0.1813     2.1889     0.3803 
C     1.1697     3.8134     0.0742 
C     2.3562     2.9183     0.3088 
H     2.0264     1.9077     0.5421 
H     2.9652     3.2798     1.1408 
H     3.0025     2.8686    -0.5689 
B     3.3496     6.1793     2.5474 
C     4.4848     5.0077     2.6242 
C     4.4093     4.0413     3.6210 
C     5.5847     4.8953     1.7851 
C     5.3170     3.0052     3.7569 
C     6.5175     3.8755     1.8870 
C     6.3790     2.9188     2.8754 
C     3.4706     7.1297     3.8720 
C     4.7165     7.6615     4.1897 
C     2.4590     7.4810     4.7524 
C     4.9581     8.4557     5.2960 
C     2.6536     8.2688     5.8757 
C     3.9147     8.7591     6.1526 
F     5.8142     5.7949     0.8241 
F     7.5470     3.8130     1.0500 
F     7.2629     1.9378     2.9865 
F     5.1854     2.1052     4.7252 
F     3.4272     4.0909     4.5287 
F     5.7610     7.4294     3.3867 
F     6.1718     8.9345     5.5384 
F     4.1201     9.5195     7.2176 
F     1.6379     8.5608     6.6802 
F     1.1891     7.0742     4.5555 
C     0.9213     5.7649     2.3494 
O     2.0019     5.3186     2.7039 
H     0.8257     6.8030     2.0283 
H     0.0420     5.1228     2.4074 


















 
