58

 N                  5.27437400   -4.08231000   -3.39103900
 B                  2.38572900   -4.44076400   -2.86332800
 C                  4.70322100   -5.46977900   -3.76045800
 H                  4.92821400   -6.06827100   -2.87227600
 C                  3.18440300   -5.39254100   -3.95912800
 H                  3.03258200   -4.95394000   -4.95308200
 C                  4.84435000   -3.00808600   -4.35119700
 H                  5.22845600   -3.30275500   -5.32964200
 H                  3.76217700   -3.00166500   -4.39135300
 C                  5.38748700   -1.65030700   -3.94184600
 H                  4.98708100   -1.37870500   -2.96051500
 H                  5.00301600   -0.91438200   -4.64929000
 C                  6.91015500   -1.65964900   -3.91982100
 H                  7.29627600   -0.69126800   -3.60269700
 H                  7.28391700   -1.83959200   -4.93315200
 C                  7.40066500   -2.75536600   -2.98048800
 H                  7.18230300   -2.49507800   -1.94773500
 H                  8.48165300   -2.87997900   -3.06443600
 C                  6.77645100   -4.10184800   -3.32373500
 H                  7.10831000   -4.39875100   -4.31629100
 H                  7.05215300   -4.87164900   -2.60598200
 C                  5.38685900   -6.11985500   -4.96134000
 H                  6.46362800   -6.20544100   -4.82209000
 H                  5.20661400   -5.52429400   -5.86151700
 C                  4.82485400   -7.53261900   -5.16111600
 H                  5.12572100   -8.14833900   -4.30742300
 H                  5.28698900   -7.97425200   -6.04528600
 C                  3.30563900   -7.54519600   -5.27183000
 H                  2.94871400   -8.57410600   -5.34363600
 H                  2.99693800   -7.03558100   -6.19034000
 C                  2.67860600   -6.84080800   -4.07404400
 H                  1.59298900   -6.84284800   -4.15401400
 H                  2.92858800   -7.39193300   -3.16211900
 C                  1.50767600   -5.30700200   -1.78171200
 C                  2.17960500   -6.17100400   -0.92655200
 F                  3.51674800   -6.29565500   -1.02538000
 C                  1.56907500   -6.94631000    0.03921900
 F                  2.27783200   -7.75641000    0.81909600
 C                  0.19441800   -6.87581100    0.18374300
 F                 -0.42108000   -7.60982400    1.10036400
 C                 -0.52575200   -6.03312100   -0.63887000
 F                 -1.84547600   -5.95450900   -0.50719900
 C                  0.13414200   -5.27115200   -1.59364700
 F                 -0.65093300   -4.48103100   -2.33353800
 C                  1.50801700   -3.28241400   -3.62896700
 C                  0.64677700   -3.64282900   -4.65746600
 F                  0.50689500   -4.93836900   -4.97248300
 C                 -0.11900300   -2.75091300   -5.38244800
 F                 -0.92784400   -3.17076700   -6.34924200
 C                 -0.03860400   -1.40084000   -5.08818000
 F                 -0.75671900   -0.52065400   -5.77212900
 C                  0.80305400   -0.98435600   -4.07670200
 F                  0.89835300    0.31030600   -3.78867200
 C                  1.54957800   -1.91882000   -3.37083800
 F                  2.33917100   -1.41055100   -2.41622000
 C                  4.68394700   -3.81884200   -1.97628800
 O                  5.45152100   -3.74167500   -1.07041000
 O                  3.42248000   -3.71634800   -1.97770000

