60

N        5.225595000     -4.673840000     -3.448469000
B        2.143979000     -3.678064000     -3.432799000
C        4.151211000     -5.386150000     -4.277903000
H        3.747820000     -6.138058000     -3.600205000
C        3.000497000     -4.436073000     -4.688551000
H        3.442638000     -3.636659000     -5.300064000
C        6.401871000     -4.169281000     -4.232003000
H        6.903508000     -5.035638000     -4.660092000
H        6.002156000     -3.548528000     -5.031508000
C        7.365866000     -3.384600000     -3.354115000
H        6.880742000     -2.468119000     -3.019081000
H        8.214314000     -3.097314000     -3.977002000
C        7.823714000     -4.206367000     -2.154797000
H        8.465751000     -3.607125000     -1.509425000
H        8.414677000     -5.064821000     -2.490487000
C        6.605021000     -4.700841000     -1.385551000
H        6.051503000     -3.849209000     -0.975149000
H        6.889887000     -5.333228000     -0.543730000
C        5.681537000     -5.496700000     -2.290423000
H        6.187063000     -6.373481000     -2.703322000
H        4.794000000     -5.826672000     -1.757049000
C        4.805266000     -6.150593000     -5.428711000
H        5.589969000     -6.806394000     -5.039663000
H        5.272643000     -5.455251000     -6.130081000
C        3.767661000     -6.958668000     -6.193315000
H        3.291251000     -7.683947000     -5.525835000
H        4.255440000     -7.523261000     -6.989380000
C        2.722795000     -6.004372000     -6.744652000
H        1.966703000     -6.546894000     -7.315268000
H        3.203957000     -5.305689000     -7.437693000
C        2.048803000     -5.233798000     -5.615629000
H        1.333293000     -4.546727000     -6.056104000
H        1.469723000     -5.937678000     -5.013018000
C        2.477818000     -4.365709000     -1.965028000
C        3.044837000     -3.745462000     -0.860295000
F        3.360329000     -2.445072000     -0.863813000
C        3.336347000     -4.406740000      0.328452000
F        3.908860000     -3.755058000      1.335931000
C        3.032065000     -5.745413000      0.464135000
F        3.301711000     -6.389092000      1.591215000
C        2.438685000     -6.407037000     -0.598992000
F        2.130939000     -7.694462000     -0.487899000
C        2.187828000     -5.711778000     -1.765128000
F        1.621654000     -6.415346000     -2.756236000
C        0.515132000     -3.615691000     -3.725665000
C        0.096370000     -2.875324000     -4.828908000
F        1.005702000     -2.338994000     -5.657767000
C       -1.224430000     -2.651015000     -5.163949000
F       -1.546255000     -1.944129000     -6.243997000
C       -2.223054000     -3.174320000     -4.361392000
F       -3.500228000     -2.974640000     -4.660621000
C       -1.867846000     -3.899650000     -3.244269000
F       -2.813213000     -4.394159000     -2.450179000
C       -0.525285000     -4.096915000     -2.945786000
F       -0.303077000     -4.778078000     -1.813377000
C        3.535022000     -1.562971000     -3.403390000
O        2.412351000     -2.175096000     -3.380326000
O        4.645419000     -2.069926000     -3.366768000
H        3.421712000     -0.473250000     -3.456273000
H        4.791364000     -3.794268000     -3.102627000


























