88

P       16.999573000     10.494708000      3.870110000
C       15.926068000      9.514902000      2.775765000
C       14.515261000      9.694131000      2.685689000
H       14.044440000     10.456663000      3.291968000
C       13.728130000      8.923224000      1.864437000
H       12.662331000      9.109557000      1.834486000
C       14.274149000      7.892369000      1.061023000
H       13.644617000      7.301331000      0.409639000
C       17.278111000      5.927459000     -0.073560000
H       16.648011000      5.356222000     -0.741599000
C       18.664457000      5.698000000      0.007296000
H       19.112479000      4.932198000     -0.613003000
C       19.471791000      6.422999000      0.862099000
H       20.529730000      6.188927000      0.867178000
C       19.003128000      7.454092000      1.719298000
C       17.646964000      7.665968000      1.603129000
C       16.434650000      8.476967000      2.038129000
C       15.615543000      7.697537000      1.180982000
C       16.811593000      6.915393000      0.743252000
C       15.815719000     11.005970000      5.185481000
C       15.736462000     10.163439000      6.310302000
C       14.888473000     10.492183000      7.359793000
H       14.834212000      9.830033000      8.217009000
C       14.107319000     11.639134000      7.336737000
C       14.166345000     12.438147000      6.205289000
H       13.533058000     13.316855000      6.148921000
C       14.992088000     12.145638000      5.121447000
C       16.544485000      8.896757000      6.424758000
H       16.203242000      8.306630000      7.273623000
H       17.598430000      9.129608000      6.581609000
H       16.469738000      8.275022000      5.530151000
C       13.228881000     12.000578000      8.500618000
H       12.404051000     12.640193000      8.189010000
H       13.801127000     12.541432000      9.257563000
H       12.816804000     11.109809000      8.974319000
C       14.904458000     13.070160000      3.932475000
H       15.729480000     13.784606000      3.909062000
H       13.972659000     13.632145000      3.979486000
H       14.925363000     12.528564000      2.987720000
C       17.569845000     12.060193000      3.101015000
C       17.356244000     12.471656000      1.773123000
C       17.790304000     13.735714000      1.384921000
H       17.624359000     14.044751000      0.358779000
C       18.448240000     14.600151000      2.249239000
C       18.714740000     14.147748000      3.532709000
H       19.280539000     14.776225000      4.211648000
C       18.302752000     12.893404000      3.970470000
C       16.695085000     11.620170000      0.721042000
H       16.748484000     12.123542000     -0.242611000
H       15.644915000     11.425152000      0.945031000
H       17.184717000     10.650904000      0.618514000
C       18.886451000     15.964235000      1.799630000
H       19.065036000     15.982412000      0.725190000
H       19.803509000     16.265110000      2.305340000
H       18.119879000     16.708915000      2.025337000
C       18.680034000     12.482900000      5.371342000
H       19.099542000     11.473523000      5.388387000
H       17.820805000     12.489403000      6.045531000
H       19.431915000     13.162136000      5.768991000
B       20.016753000      8.269936000      2.672644000
C       21.381699000      7.418208000      2.933204000
F       20.113321000      5.728675000      3.980044000
C       21.298061000      6.167329000      3.537593000
F       22.234025000      4.151280000      4.330007000
C       22.379013000      5.329548000      3.734173000
F       24.682934000      4.947856000      3.472514000
C       23.630119000      5.732896000      3.298379000
F       24.962489000      7.354307000      2.257521000
C       23.767632000      6.961004000      2.682588000
F       22.883614000      8.935291000      1.893617000
C       22.654957000      7.774092000      2.512030000
C       20.274208000      9.810986000      2.202038000
F       21.242046000     10.315169000      4.295634000
C       20.871325000     10.718802000      3.066300000
F       21.710279000     12.849169000      3.633304000
C       21.153707000     12.030345000      2.745588000
F       21.102018000     13.746512000      1.139868000
C       20.840552000     12.491627000      1.479945000
F       19.915299000     12.074900000     -0.630181000
C       20.248259000     11.631470000      0.577972000
F       19.439972000      9.558156000     -0.010042000
C       19.982615000     10.319838000      0.943595000
O       19.267698000      8.374257000      4.094010000
H       18.545129000      9.086090000      4.100732000
C       19.834690000      8.217633000      5.404216000
H       20.891663000      7.997947000      5.304511000
H       19.722378000      9.150916000      5.951716000
H       19.318300000      7.402735000      5.905745000










 
