85

P   16.8022    10.3273     4.2205 
C   15.6848     9.3027     3.2350 
C   14.2824     9.4695     3.4419 
H   13.9353    10.1881     4.1727 
C   13.3525     8.7340     2.7480 
H   12.3022     8.9053     2.9433 
C   13.7322     7.7594     1.7945 
H   12.9867     7.1935     1.2526 
C   16.4858     5.9393    -0.0703 
H   15.7599     5.3413    -0.6042 
C   17.8717     5.7785    -0.2917 
H   18.2035     5.0412    -1.0119 
C   18.8185     6.5276     0.3818 
H   19.8660     6.3492     0.1634 
C   18.4893     7.5195     1.3378 
C   17.1355     7.6412     1.5373 
C   16.0511     8.3479     2.3135 
C   15.0712     7.5919     1.6127 
C   16.1573     6.8838     0.8581 
C   15.8931    10.7610     5.7168 
C   15.8091     9.8029     6.7442 
C   15.1650    10.1567     7.9249 
H   15.1032     9.4217     8.7195 
C   14.5828    11.4022     8.1053 
C   14.6020    12.2944     7.0396 
H   14.0907    13.2455     7.1377 
C   15.2334    12.0003     5.8387 
C   16.3417     8.3980     6.6294 
H   15.7708     7.7422     7.2843 
H   17.3903     8.3469     6.9187 
H   16.2613     7.9972     5.6179 
C   13.9333    11.7721     9.4071 
H   13.0991    12.4554     9.2522 
H   14.6538    12.2717    10.0583 
H   13.5697    10.8897     9.9318 
C   15.1214    13.0130     4.7259 
H   16.0191    13.6269     4.6356 
H   14.2801    13.6745     4.9258 
H   14.9543    12.5444     3.7548 
C   17.5559    11.7770     3.4224 
C   17.4415    12.0500     2.0475 
C   18.1628    13.1211     1.5271 
H   18.0796    13.3298     0.4665 
C   18.9995    13.9068     2.3035 
C   19.1090    13.6014     3.6536 
H   19.7778    14.1864     4.2748 
C   18.4089    12.5545     4.2370 
C   16.6221    11.2477     1.0717 
H   16.6129    11.7526     0.1079 
H   15.5898    11.1126     1.3933 
H   17.0599    10.2580     0.9213 
C   19.7889    15.0366     1.7097 
H   19.6391    15.1033     0.6336 
H   20.8544    14.8969     1.8980 
H   19.4966    15.9874     2.1590 
C   18.5967    12.3486     5.7209 
H   18.6508    11.3029     6.0176 
H   17.7819    12.8112     6.2836 
H   19.5269    12.8199     6.0318 
B   19.5444     8.3795     2.2025 
C   20.5691     7.4075     3.0052 
F   18.7354     6.4585     4.1506 
C   20.0569     6.5068     3.9304 
F   20.2939     4.8008     5.5455 
C   20.8380     5.6342     4.6630 
F   22.9791     4.7976     5.1555 
C   22.2082     5.6302     4.4671 
F   24.0798     6.4926     3.3474 
C   22.7647     6.4963     3.5460 
F   22.5550     8.1642     1.9600 
C   21.9430     7.3604     2.8381 
C   20.2195     9.6656     1.4491 
F   21.0215    10.4026     3.5399 
C   20.8743    10.6145     2.2263 
F   22.0115    12.6653     2.5222 
C   21.3955    11.7913     1.7270 
F   21.7356    13.2038    -0.1245 
C   21.2555    12.0705     0.3788 
F   20.4459    11.4380    -1.7284 
C   20.5994    11.1687    -0.4339 
F   19.4738     9.1786    -0.7475 
C   20.0972     9.9930     0.1095 
O   19.0207     9.0571     5.3975 
O   18.5813     9.0876     3.1700 
C   18.3968     9.3086     4.4133 



























 
