86

P   16.3123    10.0729     4.4514 
C   15.4800     9.0593     3.1692 
C   14.0590     9.0385     3.0858 
H   13.4924     9.7017     3.7248 
C   13.3627     8.2110     2.2319 
H   12.2813     8.2595     2.2246 
C   14.0264     7.3156     1.3722 
H   13.4809     6.6748     0.6928 
C   17.1827     5.8811     0.0120 
H   16.5852     5.2624    -0.6438 
C   18.5916     5.8412    -0.0197 
H   19.0910     5.1755    -0.7119 
C   19.3479     6.6355     0.8131 
H   20.4275     6.5646     0.7380 
C   18.7993     7.5522     1.7528 
C   17.4215     7.5689     1.7731 
C   16.1184     8.1543     2.3430 
C   15.3869     7.3208     1.4627 
C   16.6476     6.7486     0.9155 
C   14.9068    10.7754     5.4162 
C   14.6549    10.1708     6.6642 
C   13.6846    10.7024     7.5038 
H   13.5017    10.2282     8.4622 
C   12.9438    11.8232     7.1503 
C   13.1822    12.3920     5.9091 
H   12.5983    13.2532     5.6022 
C   14.1390    11.8875     5.0301 
C   15.4074     8.9517     7.1372 
H   14.9574     8.5631     8.0495 
H   16.4508     9.1945     7.3528 
H   15.4063     8.1576     6.3898 
C   11.8883    12.3683     8.0706 
H   10.9867    11.7534     8.0274 
H   11.6122    13.3856     7.7966 
H   12.2329    12.3705     9.1050 
C   14.2724    12.5617     3.6906 
H   15.0962    13.2785     3.6818 
H   13.3543    13.0978     3.4536 
H   14.4612    11.8409     2.8962 
C   17.1190    11.5705     3.7387 
C   17.2265    11.9292     2.3809 
C   17.8326    13.1386     2.0469 
H   17.8889    13.4136     0.9983 
C   18.3685    13.9988     2.9931 
C   18.3072    13.6045     4.3209 
H   18.7430    14.2421     5.0830 
C   17.6986    12.4170     4.7115 
C   16.7121    11.0944     1.2378 
H   16.9058    11.6039     0.2944 
H   15.6408    10.9025     1.3070 
H   17.2069    10.1239     1.1925 
C   19.0218    15.2954     2.6051 
H   18.9569    15.4655     1.5315 
H   20.0776    15.2942     2.8827 
H   18.5488    16.1355     3.1163 
C   17.6599    12.1287     6.1925 
H   17.8588    11.0786     6.4141 
H   16.6801    12.3563     6.6182 
H   18.4033    12.7338     6.7089 
B   19.7981     8.4361     2.6405 
C   21.1192     7.5823     3.0820 
F   19.7577     6.0653     4.2719 
C   20.9741     6.4139     3.8226 
F   21.8109     4.4808     4.8846 
C   22.0180     5.5733     4.1600 
F   24.3143     5.0978     4.0341 
C   23.2958     5.8863     3.7293 
F   24.7173     7.3341     2.5598 
C   23.4966     7.0304     2.9810 
F   22.7053     8.9223     1.9328 
C   22.4198     7.8505     2.6747 
C   20.1260     9.9292     2.0985 
F   20.9397    10.5509     4.2284 
C   20.6837    10.8770     2.9459 
F   21.5624    13.0173     3.4162 
C   21.0432    12.1501     2.5532 
F   21.1612    13.7423     0.8303 
C   20.8499    12.5183     1.2346 
F   20.0721    11.9818    -0.9078 
C   20.2928    11.6161     0.3507 
F   19.4223     9.5370    -0.1313 
C   19.9417    10.3492     0.7893 
C   19.2436     8.6353     5.1132 
O   18.9229     8.7280     3.9458 
H   20.2524     8.3282     5.3960 
H   18.4797     8.8781     5.8541 
























 
