85

P   16.8480    10.4990     4.3200 
C   15.6297     9.6145     3.3019 
C   14.2218     9.8224     3.3574 
H   13.8234    10.5373     4.0647 
C   13.3486     9.1317     2.5507 
H   12.2886     9.3341     2.6335 
C   13.7972     8.1657     1.6166 
H   13.0982     7.6464     0.9749 
C   16.6612     6.2393     0.0848 
H   15.9720     5.7368    -0.5801 
C   18.0424     5.9625     0.0579 
H   18.4225     5.2342    -0.6470 
C   18.9256     6.5852     0.9178 
H   19.9724     6.3123     0.8503 
C   18.5438     7.5575     1.8797 
C   17.1944     7.8282     1.8597 
C   16.0425     8.6226     2.4508 
C   15.1387     7.9348     1.6024 
C   16.2787     7.1719     1.0037 
C   15.8694    10.9959     5.7895 
C   16.0025    10.1907     6.9370 
C   15.3219    10.5352     8.0964 
H   15.4315     9.9098     8.9756 
C   14.5065    11.6587     8.1601 
C   14.3741    12.4309     7.0170 
H   13.7301    13.3032     7.0421 
C   15.0330    12.1248     5.8272 
C   16.8748     8.9610     6.9602 
H   16.7476     8.4252     7.8991 
H   17.9305     9.2319     6.8721 
H   16.6394     8.2737     6.1457 
C   13.7681    11.9989     9.4236 
H   13.3799    13.0158     9.3933 
H   14.4178    11.9031    10.2940 
H   12.9246    11.3208     9.5689 
C   14.7946    13.0454     4.6559 
H   15.5839    13.7962     4.5742 
H   13.8465    13.5657     4.7879 
H   14.7621    12.5158     3.7053 
C   17.4042    12.0791     3.5678 
C   17.1361    12.5172     2.2563 
C   17.5886    13.7716     1.8639 
H   17.3819    14.1008     0.8513 
C   18.3129    14.6057     2.7070 
C   18.6215    14.1308     3.9707 
H   19.2341    14.7344     4.6316 
C   18.1965    12.8800     4.4124 
C   16.4054    11.6963     1.2261 
H   16.4003    12.2251     0.2747 
H   15.3709    11.4963     1.5097 
H   16.8880    10.7304     1.0668 
C   18.7771    15.9542     2.2367 
H   19.2650    15.8751     1.2646 
H   19.4836    16.3942     2.9388 
H   17.9328    16.6380     2.1285 
C   18.6313    12.4496     5.7911 
H   18.9043    11.3917     5.8195 
H   17.8424    12.5996     6.5312 
H   19.5032    13.0240     6.0995 
B   19.6287     8.2207     2.8608 
C   20.9322     7.2634     3.0720 
F   19.5637     5.6041     4.0484 
C   20.7728     6.0053     3.6469 
F   21.5981     3.9242     4.3929 
C   21.8106     5.1091     3.8316 
F   24.0933     4.6131     3.5826 
C   23.0845     5.4558     3.4174 
F   24.5115     7.0258     2.4212 
C   23.2932     6.6878     2.8279 
F   22.5162     8.7203     2.0705 
C   22.2266     7.5593     2.6658 
C   20.0041     9.7745     2.5380 
F   20.9355    10.0108     4.7013 
C   20.6361    10.5533     3.4974 
F   21.5953    12.5626     4.2803 
C   21.0114    11.8663     3.3099 
F   21.1006    13.7279     1.8788 
C   20.7528    12.4659     2.0894 
F   19.8516    12.3149    -0.0660 
C   20.1246    11.7385     1.0993 
F   19.1987     9.7799     0.3077 
C   19.7699    10.4172     1.3322 
O   18.9404     8.2495     4.3107 
H   19.6145     8.3903     4.9923 
H   18.2655     9.0214     4.4012 



























 
