73

C   12.2844     4.9072     6.7057 
C   13.5994     5.0655     6.4891 
C   10.1847     3.6788     5.0435 
C    9.0681     3.7644     4.2103 
H    8.7651     4.7205     3.7992 
C    8.3401     2.6232     3.9147 
H    7.4754     2.6889     3.2682 
C    8.7229     1.3993     4.4487 
H    8.1526     0.5092     4.2173 
C    9.8350     1.3124     5.2744 
H   10.1359     0.3575     5.6838 
C   10.5712     2.4490     5.5725 
H   11.4503     2.3789     6.2011 
C   10.0993     6.5366     5.6449 
C    8.8500     6.3696     6.2395 
H    8.4685     5.3764     6.4437 
C    8.0962     7.4849     6.5725 
H    7.1261     7.3596     7.0347 
C    8.5879     8.7579     6.3142 
H    7.9976     9.6260     6.5770 
C    9.8343     8.9224     5.7238 
H   10.2195     9.9144     5.5297 
C   10.5985     7.8148     5.3901 
H   11.5844     7.9383     4.9555 
C   11.6081     4.5785     8.0207 
H   12.2103     3.8399     8.5576 
H   10.6378     4.1041     7.8380 
C   14.5125     4.7885     7.6415 
F   14.6383     2.4999     7.1022 
C   15.0313     3.5206     7.8627 
F   16.4274     2.0333     9.0343 
C   15.9557     3.2602     8.8586 
F   17.2698     4.0547    10.6339 
C   16.3859     4.2893     9.6772 
F   16.2713     6.5531    10.2845 
C   15.8741     5.5622     9.4982 
F   14.4684     7.0307     8.3766 
C   14.9454     5.7920     8.4979 
C   15.3314     6.8229     5.5664 
F   13.8070     8.6191     5.2005 
C   15.0046     8.1716     5.5996 
F   15.4826    10.4303     6.0830 
C   15.8590     9.1539     6.0783 
F   17.9211     9.7323     7.0474 
C   17.0984     8.8053     6.5753 
F   18.6487     7.1109     7.0689 
C   17.4656     7.4720     6.5812 
F   17.0131     5.2558     6.1266 
C   16.5880     6.5292     6.0804 
C   15.0360     4.4243     4.2267 
F   16.7326     5.8461     3.3750 
C   16.1687     4.6380     3.4462 
F   17.8748     3.9215     1.9840 
C   16.7853     3.6520     2.6949 
F   16.8291     1.4196     1.9550 
C   16.2561     2.3743     2.6749 
F   14.5599     0.9039     3.3647 
C   15.1097     2.1153     3.3978 
F   13.3778     2.8041     4.7504 
C   14.5312     3.1354     4.1353 
B   14.2972     5.6416     5.0847 
P   11.1847     5.1430     5.3210 
C   11.3902     5.8058     8.9126 
H   12.3580     6.2340     9.1744 
H   10.8578     6.5757     8.3483 
C   10.6130     5.4501    10.1722 
H    9.6230     5.0614     9.9238 
H   11.1350     4.6856    10.7509 
H   10.4797     6.3216    10.8126 
C   12.2081     5.4970     3.8382 
O   13.2788     6.2703     4.2174 
H   12.4761     4.5320     3.3911 
H   11.5753     6.0391     3.1288 










































 
