58

B   0.0284     1.1228     8.3464 
C   0.4323     1.2556     9.9176 
C  -0.3897     0.8777    10.9847 
H  -1.3845     0.5066    10.7700 
C   0.0278     0.9635    12.3032 
H  -0.6427     0.6654    13.0990 
C   1.3059     1.4159    12.6143 
H   1.6373     1.4682    13.6424 
C   2.1613     1.7878    11.5917 
H   3.1711     2.1206    11.7992 
C   1.6901     1.7109    10.2919 
C  -1.1376     0.0242     8.1078 
C  -2.4808     0.3146     8.2899 
F  -2.8444     1.5348     8.7087 
C  -3.4975    -0.6008     8.0770 
F  -4.7715    -0.2690     8.2671 
C  -3.1746    -1.8825     7.6686 
F  -4.1314    -2.7796     7.4610 
C  -1.8469    -2.2246     7.4863 
F  -1.5316    -3.4588     7.1016 
C  -0.8636    -1.2755     7.7115 
F   0.4021    -1.6759     7.5313 
C  -0.3135     2.5514     7.6246 
C  -0.1897     2.6578     6.2459 
F   0.1313     1.5777     5.5235 
C  -0.3423     3.8443     5.5489 
F  -0.1831     3.8916     4.2281 
C  -0.6385     5.0012     6.2461 
F  -0.7538     6.1606     5.6068 
C  -0.7912     4.9446     7.6185 
F  -1.0618     6.0581     8.2971 
C  -0.6414     3.7326     8.2726 
F  -0.7943     3.7615     9.6020 
N   2.5788     2.1182     9.1669 
C   2.5266     3.5556     8.8142 
C   2.7778     3.8785     7.4901 
C   2.2043     4.5148     9.7527 
C   2.6950     5.2027     7.0950 
H   3.0084     3.0979     6.7734 
C   2.1308     5.8421     9.3442 
H   1.9691     4.2382    10.7702 
C   2.3719     6.1860     8.0238 
H   2.8633     5.4636     6.0586 
H   1.8574     6.6025    10.0629 
H   2.2885     7.2179     7.7098 
C   3.9420     1.5579     9.2695 
C   4.0669     0.1941     9.0575 
C   5.0242     2.3553     9.5857 
C   5.3212    -0.3836     9.1614 
H   3.1909    -0.4005     8.8213 
C   6.2753     1.7599     9.6953 
H   4.9008     3.4195     9.7354 
C   6.4246     0.3981     9.4828 
H   5.4353    -1.4455     8.9916 
H   7.1337     2.3695     9.9431 
H   7.4025    -0.0570     9.5645 
H   1.0201     0.6992     7.7492 
H   2.1172     1.6233     8.3691 




