60

B       -0.249081000      1.151702000      8.512055000
C        0.187426000      1.186591000     10.076944000
C       -0.724482000      0.926236000     11.103262000
H       -1.736533000      0.645826000     10.833754000
C       -0.383898000      1.039474000     12.439498000
H       -1.122108000      0.843152000     13.206123000
C        0.906051000      1.411368000     12.798130000
H        1.182564000      1.509711000     13.839256000
C        1.849933000      1.647610000     11.813501000
H        2.860172000      1.923828000     12.084218000
C        1.472555000      1.519337000     10.483632000
C       -1.297646000     -0.084395000      8.256654000
C       -2.652746000      0.036644000      7.988170000
F       -3.238379000      1.238340000      7.924888000
C       -3.490953000     -1.049229000      7.780853000
F       -4.782637000     -0.870092000      7.521731000
C       -2.978495000     -2.330048000      7.849685000
F       -3.765215000     -3.380902000      7.655000000
C       -1.635987000     -2.505231000      8.133415000
F       -1.131074000     -3.733424000      8.217994000
C       -0.840996000     -1.392092000      8.333211000
F        0.446465000     -1.634513000      8.635208000
C       -0.821610000      2.602199000      7.983282000
C       -1.034920000      2.755765000      6.618571000
F       -0.926155000      1.697649000      5.808814000
C       -1.364502000      3.958189000      6.022211000
F       -1.546758000      4.046910000      4.706941000
C       -1.500040000      5.088586000      6.810268000
F       -1.791183000      6.262096000      6.258483000
C       -1.316481000      4.983891000      8.173116000
F       -1.422431000      6.068314000      8.940385000
C       -0.994014000      3.754210000      8.730248000
F       -0.835380000      3.754048000     10.062645000
N        2.474517000      1.787651000      9.392675000
C        2.292491000      3.174599000      8.871435000
C        2.346651000      3.432289000      7.509954000
C        2.096841000      4.201969000      9.780568000
C        2.177293000      4.735070000      7.061798000
H        2.474651000      2.641428000      6.788138000
C        1.933442000      5.500021000      9.321465000
H        2.037058000      3.995718000     10.839116000
C        1.965891000      5.769171000      7.961372000
H        2.194012000      4.931545000      5.998108000
H        1.756144000      6.295450000     10.032368000
H        1.812340000      6.778564000      7.602988000
C        3.877831000      1.517643000      9.796080000
C        4.163368000      0.295958000     10.398144000
C        4.891987000      2.417072000      9.512344000
C        5.473126000     -0.018360000     10.716928000
H        3.367548000     -0.394048000     10.643126000
C        6.202987000      2.089684000      9.841089000
H        4.678449000      3.366319000      9.044369000
C        6.498038000      0.877284000     10.439553000
H        5.689622000     -0.967429000     11.188447000
H        6.991809000      2.796646000      9.622204000
H        7.519948000      0.629050000     10.692720000
C        2.150908000      0.700795000      8.260473000
O        0.988866000      0.939890000      7.669234000
H        2.207508000     -0.228669000      8.828576000
H        2.990387000      0.776111000      7.566292000











































 
