59

 B                  0.00744200    1.29002200    8.30295500
 C                  0.42531200    1.35948400    9.87166200
 C                 -0.48092100    1.02413900   10.88136400
 H                 -1.48747700    0.73041000   10.60771000
 C                 -0.13843200    1.05518600   12.22348500
 H                 -0.87171400    0.79078500   12.97426000
 C                  1.14853600    1.41302800   12.60342500
 H                  1.42909000    1.43059400   13.64826400
 C                  2.07576600    1.74729000   11.63192800
 H                  3.08861900    2.02095000   11.90333600
 C                  1.70686700    1.72923900   10.29210900
 C                 -1.11728400    0.14632500    8.01792600
 C                 -2.47161800    0.44461100    8.09108500
 F                 -2.86940500    1.67926300    8.41182500
 C                 -3.47276400   -0.48755300    7.87357300
 F                 -4.75095000   -0.14260500    7.95768200
 C                 -3.13349900   -1.79487000    7.57442400
 F                 -4.07631700   -2.70085100    7.36353300
 C                 -1.79834700   -2.14822600    7.50866200
 F                 -1.45370200   -3.40063800    7.23534000
 C                 -0.83788000   -1.18051300    7.73863700
 F                  0.44794200   -1.60844100    7.68360900
 C                 -0.36466500    2.71205200    7.60590000
 C                 -0.36996200    2.81272000    6.22124100
 F                 -0.18742400    1.71978400    5.47028900
 C                 -0.55255800    4.00512000    5.54294300
 F                 -0.52588000    4.04847100    4.21414100
 C                 -0.75964200    5.16568300    6.26556300
 F                 -0.91286200    6.32601200    5.64045200
 C                 -0.79979400    5.10866300    7.64576800
 F                 -1.00079500    6.22155500    8.34526600
 C                 -0.61535500    3.89443100    8.28532700
 F                 -0.68772700    3.91603900    9.61884600
 N                  2.68886800    2.11828500    9.27816300
 C                  2.60106100    3.50126400    8.85234800
 C                  2.85088800    3.79164100    7.51479800
 C                  2.24929800    4.51339000    9.73217200
 C                  2.73876600    5.09448500    7.05779900
 H                  3.11867700    2.99193100    6.83405300
 C                  2.13394800    5.81743400    9.26660700
 H                  2.02883500    4.28158900   10.76516200
 C                  2.37663700    6.11149200    7.93374700
 H                  2.92001500    5.31313900    6.01349600
 H                  1.83659900    6.60167600    9.94993500
 H                  2.26875200    7.12593700    7.57294000
 C                  4.01431500    1.58143100    9.45433800
 C                  4.13965100    0.20953700    9.67287800
 C                  5.15216200    2.37390900    9.37866400
 C                  5.39333400   -0.35956900    9.80979200
 H                  3.24873100   -0.40197200    9.75772800
 C                  6.40666300    1.79086100    9.51414100
 H                  5.06404600    3.43878800    9.21456200
 C                  6.53528300    0.42858300    9.72851500
 H                  5.47815200   -1.42476800    9.98026000
 H                  7.28765200    2.41652700    9.45529000
 H                  7.51459600   -0.01801700    9.83424300
 O                  1.33707400    0.87264400    7.53830300
 H                  2.07576100    1.32612300    8.13119900
 H                  1.45822200   -0.08694900    7.50146800

