91

P        5.696193000      3.505906000      4.004296000
B        3.038850000      4.457564000      5.273570000
C        5.430175000      3.379636000      5.813268000
C        4.204038000      3.771855000      6.223502000
C        6.169436000      5.191734000      3.504370000
C        7.157130000      5.869020000      4.242665000
C        7.420920000      7.200325000      3.957538000
H        8.175364000      7.715336000      4.541890000
C        6.749716000      7.886427000      2.956475000
C        5.840632000      7.176334000      2.185934000
H        5.343885000      7.677448000      1.362911000
C        5.537612000      5.839682000      2.420172000
C        7.995371000      5.230363000      5.313073000
H        7.585620000      5.443826000      6.298880000
H        9.003320000      5.644030000      5.276963000
H        8.082456000      4.148291000      5.214744000
C        6.993122000      9.348207000      2.728893000
H        8.053752000      9.586872000      2.807854000
H        6.467287000      9.932644000      3.487574000
H        6.632275000      9.664652000      1.751678000
C        4.588457000      5.186990000      1.450334000
H        4.504574000      5.810343000      0.562628000
H        3.583940000      5.078680000      1.864843000
H        4.927871000      4.200411000      1.137492000
C        6.693921000      2.171133000      3.291100000
C        7.838982000      2.393334000      2.491122000
C        8.473104000      1.291579000      1.928043000
H        9.354396000      1.461469000      1.321022000
C        8.024600000     -0.008401000      2.106961000
C        6.897245000     -0.200199000      2.887476000
H        6.524548000     -1.205937000      3.047387000
C        6.212685000      0.853987000      3.477421000
C        8.450267000      3.734904000      2.168400000
H        9.318373000      3.582281000      1.531025000
H        8.785504000      4.263868000      3.057819000
H        7.758720000      4.387825000      1.638305000
C        8.720374000     -1.163695000      1.448915000
H        8.587425000     -2.081535000      2.019929000
H        9.786847000     -0.971286000      1.338353000
H        8.308212000     -1.330946000      0.451378000
C        4.997047000      0.463034000      4.282586000
H        5.220879000     -0.432543000      4.862751000
H        4.172822000      0.234757000      3.606232000
H        4.643967000      1.212248000      4.984461000
C        6.491821000      2.899835000      6.747730000
C        6.748732000      3.666598000      7.889714000
H        6.196858000      4.586475000      8.040218000
C        7.706768000      3.282410000      8.810961000
H        7.886991000      3.896670000      9.683557000
C        8.438686000      2.118614000      8.610178000
H        9.189040000      1.814774000      9.328100000
C        8.197551000      1.350964000      7.482701000
H        8.754538000      0.438010000      7.317484000
C        7.233557000      1.736006000      6.559141000
H        7.059202000      1.104567000      5.703141000
C        3.801573000      3.492791000      7.633024000
F        4.350276000      1.197812000      7.454898000
C        3.858865000      2.207358000      8.166872000
F        3.463975000      0.669815000      9.900819000
C        3.389645000      1.908478000      9.433861000
F        2.391976000      2.633770000     11.430615000
C        2.837578000      2.907168000     10.215352000
F        2.210082000      5.155842000     10.448387000
C        2.748048000      4.193417000      9.712707000
F        3.083313000      5.707996000      7.992225000
C        3.215550000      4.462472000      8.439610000
C        1.561078000      4.155877000      5.907618000
F        2.056636000      1.855323000      5.737695000
C        1.192940000      2.826292000      6.074492000
F       -0.301793000      1.129105000      6.750935000
C       -0.014292000      2.418734000      6.608131000
F       -2.097178000      3.017585000      7.517831000
C       -0.929233000      3.378980000      7.005145000
F       -1.483281000      5.642886000      7.244008000
C       -0.611293000      4.715651000      6.864081000
F        0.840108000      6.392934000      6.239828000
C        0.615488000      5.078897000      6.325358000
C        3.306707000      6.040775000      4.949073000
F        5.134372000      6.390020000      6.432124000
C        4.272989000      6.856864000      5.514456000
F        5.402941000      8.919598000      5.734967000
C        4.440994000      8.189459000      5.172180000
F        3.793826000     10.023669000      3.854604000
C        3.624666000      8.756134000      4.214791000
F        1.858002000      8.517461000      2.689395000
C        2.647240000      7.982862000      3.615374000
C        2.507886000      6.660846000      3.994928000
F        1.522744000      5.975214000      3.409064000
C        3.954656000      3.138347000      3.328815000
O        2.989067000      3.721422000      3.940017000
O        3.862188000      2.400998000      2.390441000



















 
