92

P    5.7552     3.6567     4.0628 
B    2.9679     4.2855     5.3246 
C    5.4804     3.4728     5.8484 
C    4.2755     3.8804     6.3012 
C    6.3373     5.3048     3.5466 
C    6.8877     6.2397     4.4428 
C    7.0227     7.5582     4.0290 
H    7.4166     8.2812     4.7340 
C    6.6576     7.9819     2.7583 
C    6.2396     7.0172     1.8534 
H    6.0283     7.3031     0.8284 
C    6.0854     5.6839     2.2132 
C    7.3704     5.8990     5.8226 
H    6.5496     5.9154     6.5370 
H    8.1084     6.6339     6.1411 
H    7.8364     4.9171     5.8700 
C    6.7145     9.4327     2.3830 
H    7.5503     9.9337     2.8703 
H    5.7981     9.9326     2.7060 
H    6.8055     9.5621     1.3055 
C    5.7199     4.7277     1.1003 
H    6.3948     4.8964     0.2602 
H    4.7054     4.9053     0.7401 
H    5.8094     3.6778     1.3705 
C    6.7450     2.2967     3.3708 
C    8.0755     2.4724     2.9356 
C    8.7055     1.4195     2.2858 
H    9.7293     1.5548     1.9559 
C    8.0807     0.1994     2.0612 
C    6.7963     0.0302     2.5516 
H    6.3049    -0.9301     2.4384 
C    6.1122     1.0465     3.2099 
C    8.8867     3.7234     3.1545 
H    9.9418     3.4960     3.0152 
H    8.7633     4.1198     4.1603 
H    8.6173     4.5148     2.4540 
C    8.7840    -0.8993     1.3185 
H    8.3438    -1.8706     1.5385 
H    9.8429    -0.9303     1.5736 
H    8.7097    -0.7349     0.2414 
C    4.7519     0.6872     3.7641 
H    4.8090    -0.3019     4.2201 
H    4.0047     0.6268     2.9705 
H    4.3655     1.3716     4.5167 
C    6.4956     2.7760     6.7054 
C    7.0491     3.4140     7.8190 
H    6.7822     4.4382     8.0369 
C    7.9303     2.7522     8.6591 
H    8.3399     3.2713     9.5159 
C    8.2816     1.4335     8.4070 
H    8.9705     0.9168     9.0622 
C    7.7284     0.7812     7.3171 
H    7.9727    -0.2544     7.1198 
C    6.8421     1.4437     6.4786 
H    6.3962     0.8986     5.6622 
C    3.9645     3.5796     7.7337 
F    3.1567     1.4775     7.0651 
C    3.3597     2.3666     8.0369 
F    2.3692     0.8754     9.5650 
C    2.9491     2.0420     9.3158 
F    2.7694     2.6510    11.5770 
C    3.1511     2.9479    10.3437 
F    3.9861     5.0185    11.0628 
C    3.7675     4.1569    10.0779 
F    4.7816     5.6194     8.5845 
C    4.1669     4.4554     8.7855 
C    1.5790     4.0346     6.1454 
F    0.8979     2.0654     5.0026 
C    0.6928     2.9857     5.9430 
F   -1.2712     1.7908     6.4779 
C   -0.4516     2.8117     6.7107 
F   -1.8345     3.5415     8.4656 
C   -0.7440     3.7007     7.7267 
F   -0.1505     5.6215     8.9452 
C    0.1124     4.7614     7.9657 
F    2.0471     5.9336     7.4598 
C    1.2368     4.9013     7.1748 
C    2.9587     5.8263     4.7142 
F    4.5126     6.7689     6.2189 
C    3.7251     6.8937     5.1471 
F    4.5103     9.1193     4.9900 
C    3.7386     8.1352     4.5302 
F    2.9514     9.5290     2.8092 
C    2.9406     8.3516     3.4249 
F    1.3456     7.5300     1.9119 
C    2.1266     7.3297     2.9699 
C    2.1443     6.1080     3.6216 
F    1.3370     5.1655     3.1255 
C    4.0268     3.5643     3.2931 
O    3.0550     3.3228     4.2106 
H    4.0565     2.7747     2.5421 
H    3.9053     4.5254     2.7883 
























 
