64

B  13.3590     7.1843     9.1390 
C  13.9603     6.8394    10.5303 
C  14.3614     7.9760    11.2436 
H  14.4337     8.9295    10.7315 
C  14.6186     7.9282    12.6079 
H  14.9064     8.8264    13.1382 
C  14.4890     6.7249    13.2775 
H  14.6675     6.6695    14.3437 
C  14.1594     5.5764    12.5681 
H  14.1128     4.6255    13.0878 
C  13.9253     5.6047    11.2022 
C  13.6294     4.3048    10.4795 
H  12.6592     4.4220     9.9981 
H  13.4854     3.5277    11.2401 
N  14.5910     3.9028     9.4449 
C  15.8922     3.3876     9.9801 
C  16.8327     3.0600     8.8117 
H  17.0957     4.0011     8.3181 
H  17.7519     2.6459     9.2312 
C  16.2276     2.1204     7.7905 
H  16.0143     1.1443     8.2334 
H  16.9296     1.9425     6.9737 
C  14.9650     2.7657     7.2627 
H  14.4675     2.1258     6.5302 
H  15.2385     3.6936     6.7499 
C  13.9410     3.1130     8.3527 
C  12.9010     3.9856     7.6418 
H  13.3410     4.9563     7.4084 
H  11.9837     4.1305     8.2127 
H  12.6180     3.5087     6.7018 
C  13.2299     1.8329     8.8288 
H  12.5840     2.0323     9.6855 
H  13.9233     1.0424     9.1051 
H  12.5991     1.4483     8.0250 
C  15.7716     2.1525    10.8930 
H  15.0679     2.3178    11.7095 
H  16.7452     1.9577    11.3470 
H  15.4714     1.2518    10.3640 
C  16.6166     4.4732    10.7920 
H  16.5243     5.4478    10.3170 
H  17.6749     4.2108    10.8440 
H  16.2549     4.5462    11.8135 
C  14.1950     8.0891     8.1550 
C  15.5302     7.8196     7.8747 
F  16.1187     6.7419     8.3831 
C  16.2969     8.6149     7.0402 
F  17.5614     8.3092     6.7825 
C  15.7318     9.7428     6.4722 
F  16.4524    10.5193     5.6820 
C  14.4080    10.0574     6.7329 
F  13.8699    11.1433     6.1948 
C  13.6681     9.2279     7.5533 
F  12.3994     9.5747     7.7751 
C  11.8492     6.8779     8.8055 
C  10.8903     6.6580     9.7953 
F  11.2042     6.7161    11.0845 
C   9.5603     6.3934     9.5108 
F   8.6844     6.2026    10.4878 
C   9.1439     6.3329     8.1939 
F   7.8811     6.0756     7.9079 
C  10.0573     6.5477     7.1745 
F   9.6616     6.4828     5.9110 
C  11.3712     6.8219     7.4947 
F  12.2006     6.9959     6.4669 


