70

B   13.6380     7.0154     8.9764 
C   14.2199     6.8319    10.5049 
C   14.7479     7.9289    11.1895 
H   14.8024     8.8865    10.6875 
C   15.1888     7.8664    12.5049 
H   15.5866     8.7530    12.9823 
C   15.0971     6.6773    13.2063 
H   15.4124     6.6133    14.2394 
C   14.5839     5.5653    12.5590 
H   14.4977     4.6309    13.1036 
C   14.1717     5.6240    11.2301 
C   13.5860     4.3514    10.6691 
H   12.5777     4.5569    10.3185 
H   13.5210     3.6023    11.4531 
N   14.2982     3.7260     9.4923 
C   15.7671     3.3345     9.7615 
C   16.3230     2.6108     8.5278 
H   16.4307     3.3439     7.7204 
H   17.3299     2.2800     8.7863 
C   15.4720     1.4612     8.0325 
H   15.3756     0.6824     8.7927 
H   15.9421     0.9946     7.1660 
C   14.1201     2.0240     7.6497 
H   13.4614     1.2528     7.2476 
H   14.2591     2.7656     6.8559 
C   13.3758     2.6892     8.8111 
C   12.1776     3.4203     8.1938 
H   12.5025     4.2536     7.5718 
H   11.4615     3.7899     8.9262 
H   11.6497     2.7075     7.5594 
C   12.8591     1.6377     9.7915 
H   12.2701     2.0797    10.5932 
H   13.6445     1.0285    10.2301 
H   12.1966     0.9716     9.2379 
C   15.9175     2.4706    11.0095 
H   15.5346     2.9730    11.8959 
H   16.9848     2.3134    11.1699 
H   15.4510     1.4924    10.9258 
C   16.6233     4.6004     9.9267 
H   16.3642     5.3614     9.1912 
H   17.6621     4.3075     9.7662 
H   16.5489     5.0422    10.9153 
C   14.1105     8.4665     8.3563 
C   15.4671     8.6929     8.1468 
F   16.3565     7.7351     8.4523 
C   15.9914     9.8659     7.6388 
F   17.3014    10.0121     7.4596 
C   15.1327    10.9033     7.3179 
F   15.6094    12.0410     6.8298 
C   13.7769    10.7384     7.5155 
F   12.9428    11.7291     7.2165 
C   13.2960     9.5389     8.0255 
F   11.9697     9.4842     8.1900 
C   11.9799     6.8549     8.9633 
C   11.1456     6.9229    10.0714 
F   11.6247     7.1890    11.2920 
C    9.7706     6.7336    10.0129 
F    9.0304     6.8018    11.1163 
C    9.1649     6.4765     8.7994 
F    7.8528     6.2910     8.7248 
C    9.9474     6.4218     7.6598 
F    9.3815     6.1846     6.4788 
C   11.3108     6.6172     7.7704 
F   11.9974     6.5725     6.6167 
C   14.6862     6.0046     6.8065 
H   14.2518     5.2029     6.2009 
H   14.4056     6.9502     6.3447 
H   15.7770     5.9164     6.7867 
H   14.3471     4.5582     8.8054 
O   14.2163     5.9042     8.1291 










 
