54

C    1.6592    11.0662     2.2390 
H    1.7774    11.9768     1.6558 
H    0.7760    10.5575     1.8684 
C    1.5759    11.4050     3.7182 
H    0.9727    10.6729     4.2511 
H    1.0677    12.3624     3.8257 
C    3.0160    11.4519     4.2460 
H    3.1223    10.7964     5.1116 
H    3.2576    12.4489     4.6035 
N    2.8928    10.2384     1.9722 
C    2.6173     8.7603     2.2203 
H    3.5207     8.2685     1.8891 
C    1.4780     8.2215     1.3508 
H    1.4253     7.1481     1.5437 
H    0.5160     8.6253     1.6730 
C    1.7077     8.4672    -0.1370 
H    0.8165     8.2039    -0.7079 
H    2.5039     7.8071    -0.4872 
C    2.0902     9.9200    -0.4019 
H    1.2205    10.5670    -0.2774 
H    2.4169    10.0423    -1.4364 
C    3.2366    10.3942     0.4968 
H    3.3572    11.4671     0.3592 
C    2.3970     8.3776     3.6756 
H    1.4142     8.6774     4.0358 
H    3.1579     8.7797     4.3385 
H    2.4492     7.2899     3.7362 
C    4.5476     9.7248     0.1136 
H    4.4565     8.6466    -0.0022 
H    5.3338     9.9143     0.8355 
H    4.8662    10.1343    -0.8458 
B    4.0242    10.9959     3.0382 
C    5.2813    10.1342     3.7001 
F    5.5650    12.0717     5.0437 
C    5.9402    10.8269     4.7219 
C    7.0133    10.3404     5.4454 
F    7.5732    11.0746     6.3999 
F    8.5323     8.5875     5.8480 
C    7.5085     9.0811     5.1666 
F    7.3771     7.1467     3.8506 
C    6.9156     8.3555     4.1566 
F    5.4042     8.0902     2.4659 
C    5.8451     8.8900     3.4534 
C    4.6845    12.3066     2.2513 
F    2.7977    13.7142     2.6302 
C    4.0432    13.5419     2.1610 
F    3.9086    15.8141     1.5521 
C    4.5983    14.6797     1.5991 
F    6.4302    15.7083     0.5444 
C    5.8793    14.6330     1.0865 
F    7.8101    13.3722     0.6751 
C    6.5737    13.4423     1.1540 
F    6.7612    11.2411     1.7427 
C    5.9766    12.3281     1.7235 







 
