97

Al    4.1725     5.7792     3.1247 
C     6.1685     5.9146     3.3743 
H     6.2292     5.7566     4.4637 
Si    7.2113     7.4510     3.1435 
C     6.2829     9.0931     3.1104 
H     5.7097     9.2824     4.0176 
H     5.5984     9.1569     2.2614 
H     7.0150     9.8989     3.0063 
C     8.4500     7.5690     4.5567 
H     9.0896     6.6850     4.5928 
H     7.9424     7.6500     5.5207 
H     9.0906     8.4466     4.4429 
C     8.2227     7.5118     1.5444 
H     8.8588     8.4001     1.5968 
H     7.6039     7.6173     0.6534 
H     8.8718     6.6514     1.3914 
Si    6.9849     4.4007     2.6302 
C     6.3459     2.7551     3.2872 
H     5.2613     2.6655     3.2421 
H     6.6689     2.5936     4.3179 
H     6.7825     1.9537     2.6843 
C     6.7097     4.4031     0.7645 
H     7.1481     3.5138     0.3061 
H     7.1463     5.2794     0.2812 
H     5.6367     4.3965     0.5506 
C     8.8349     4.2758     2.9995 
H     9.2380     3.3796     2.5200 
H     8.9754     4.1564     4.0773 
H     9.4380     5.1246     2.6818 
C     2.9650     6.2951     4.6701 
H     1.9628     6.2065     4.2246 
Si    3.1130     8.0097     5.3510 
C     2.9540     9.3158     3.9856 
H     3.3495    10.2765     4.3255 
H     1.8931     9.4761     3.7645 
H     3.4703     9.0535     3.0617 
C     1.7410     8.5188     6.5478 
H     1.8487     8.0689     7.5338 
H     0.7528     8.2471     6.1669 
H     1.7560     9.6050     6.6725 
C     4.7363     8.1803     6.2860 
H     5.5721     7.7559     5.7281 
H     4.6651     7.6379     7.2329 
H     4.9720     9.2212     6.5180 
Si    2.9720     4.9077     5.9242 
C     2.2234     5.3500     7.5988 
H     2.8251     6.0806     8.1433 
H     2.1701     4.4461     8.2116 
H     1.2122     5.7503     7.5018 
C     4.7140     4.3064     6.2884 
H     5.1732     3.8572     5.4071 
H     4.6940     3.5508     7.0774 
H     5.3548     5.1259     6.6246 
C     1.9455     3.4710     5.2732 
H     0.8843     3.7341     5.2885 
H     2.0809     2.5833     5.8959 
H     2.2203     3.2248     4.2453 
P     1.8295     7.0235     1.2416 
H     1.3462     7.3559    -0.0322 
C     3.5678     6.8333     1.4320 
C     4.4638     7.3116     0.5593 
H     5.5027     7.1057     0.8199 
C     4.3273     8.1129    -0.7318 
C     3.5105     9.3912    -0.5040 
H     2.4669     9.1949    -0.2568 
H     3.5156     9.9993    -1.4111 
H     3.9405     9.9833     0.3062 
C     3.7086     7.2555    -1.8432 
H     2.6714     6.9919    -1.6390 
H     4.2719     6.3295    -1.9721 
H     3.7289     7.8032    -2.7879 
C     5.7319     8.5291    -1.1799 
H     5.6813     9.1079    -2.1035 
H     6.3571     7.6520    -1.3607 
H     6.2178     9.1425    -0.4181 
C     0.8629     5.6091     1.7693 
C    -0.1449     5.7485     2.7404 
C    -0.5422     7.0744     3.3372 
H    -0.8909     7.7728     2.5735 
H     0.2852     7.5469     3.8712 
H    -1.3523     6.9337     4.0498 
C    -0.8067     4.6043     3.1602 
H    -1.5752     4.6946     3.9194 
C    -0.5012     3.3463     2.6520 
C    -1.1615     2.1188     3.2055 
H    -0.5834     1.7507     4.0572 
H    -1.2069     1.3224     2.4640 
H    -2.1709     2.3327     3.5550 
C     0.4564     3.2498     1.6522 
H     0.6847     2.2802     1.2250 
C     1.1458     4.3624     1.1901 
C     2.1648     4.2008     0.0980 
H     2.0662     3.2231    -0.3697 
H     3.1729     4.2870     0.5081 
H     2.0485     4.9554    -0.6837 
H     1.3995     8.1032     2.0111 
H     3.7605     4.2793     2.6952 

















 
