79

P    2.5943     8.9505     2.9054 
C    2.8936     9.6556     4.5799 
H    3.5215    10.5088     4.3123 
H    1.9941    10.0817     5.0193 
C    3.6385     8.7502     5.5922 
H    4.5062     9.2949     5.9678 
H    2.9852     8.6354     6.4582 
C    4.0695     7.3387     5.1455 
H    3.2416     6.8527     4.6088 
H    4.1629     6.7596     6.0653 
B    5.4294     6.9951     4.3049 
C    1.1946     7.7697     2.7652 
C    0.3440     7.3232     3.7941 
C    0.4575     7.7504     5.2342 
H   -0.3006     7.2436     5.8283 
H    0.3112     8.8213     5.3670 
H    1.4281     7.4918     5.6518 
C   -0.6712     6.4216     3.4892 
H   -1.3251     6.0907     4.2885 
C   -0.8805     5.9348     2.2074 
C   -1.9742     4.9456     1.9209 
H   -2.8197     5.0872     2.5934 
H   -1.6110     3.9245     2.0564 
H   -2.3289     5.0365     0.8947 
C   -0.0162     6.3592     1.2107 
H   -0.1419     5.9794     0.2027 
C    1.0217     7.2487     1.4643 
C    1.9335     7.6002     0.3156 
H    2.9744     7.3773     0.5641 
H    1.8767     8.6576     0.0505 
H    1.6683     7.0170    -0.5641 
C    2.0897    10.4316     1.9374 
C    0.8100    11.0086     2.0036 
C   -0.2908    10.4823     2.8841 
H   -1.0643    11.2385     3.0077 
H    0.0772    10.2123     3.8713 
H   -0.7508     9.5899     2.4555 
C    0.5241    12.1202     1.2150 
H   -0.4667    12.5575     1.2743 
C    1.4614    12.6862     0.3651 
C    1.1377    13.9066    -0.4492 
H    1.4684    14.8097     0.0686 
H    0.0655    13.9950    -0.6190 
H    1.6406    13.8793    -1.4156 
C    2.7222    12.1072     0.3120 
H    3.4720    12.5316    -0.3467 
C    3.0520    10.9952     1.0764 
C    4.4391    10.4240     0.9306 
H    4.3997     9.4083     0.5297 
H    4.9640    10.3825     1.8856 
H    5.0288    11.0337     0.2479 
C    5.5761     5.3588     4.3271 
C    5.4344     4.4971     3.2493 
F    5.2627     4.9534     1.9967 
C    5.4595     3.1132     3.3616 
F    5.3202     2.3478     2.2825 
C    5.6259     2.5297     4.5997 
F    5.6505     1.2095     4.7259 
C    5.7659     3.3434     5.7107 
F    5.9280     2.7984     6.9117 
C    5.7358     4.7144     5.5509 
F    5.8867     5.4399     6.6678 
C    6.7803     7.8162     4.7648 
C    7.9581     7.2852     5.2797 
F    8.1397     5.9684     5.3968 
C    9.0414     8.0591     5.6732 
F   10.1326     7.4869     6.1678 
C    8.9963     9.4320     5.5316 
F   10.0258    10.1820     5.8963 
C    7.8682    10.0101     4.9794 
F    7.8138    11.3258     4.7972 
C    6.8126     9.1973     4.6118 
F    5.7755     9.8264     4.0237 
O    5.1753     7.4100     2.8189 
H    4.3463     8.0068     2.6689 
C    6.2218     7.5588     1.8616 
H    6.6502     8.5592     1.9219 
H    6.9804     6.8125     2.0836 
H    5.8109     7.3725     0.8717 





















 
