76

P    1.9263     8.6780     3.0981 
C    3.0082     9.5742     4.2432 
H    3.6799    10.0864     3.5434 
H    2.4452    10.3398     4.7784 
C    3.8214     8.6603     5.1746 
H    4.5592     9.3044     5.6602 
H    3.1709     8.2934     5.9699 
C    4.5243     7.4864     4.4855 
H    3.7701     6.8030     4.0787 
H    5.0262     6.9156     5.2694 
B    5.6001     7.8454     3.2972 
C    1.0065     7.2595     3.7351 
C    0.5428     7.1134     5.0492 
C    0.6031     8.1670     6.1247 
H   -0.4103     8.4687     6.3980 
H    1.1487     9.0585     5.8411 
H    1.0740     7.7576     7.0189 
C   -0.0632     5.9119     5.4115 
H   -0.4160     5.8017     6.4312 
C   -0.2279     4.8664     4.5208 
C   -0.8581     3.5704     4.9401 
H   -1.3063     3.6477     5.9291 
H   -0.1084     2.7774     4.9678 
H   -1.6292     3.2658     4.2319 
C    0.2223     5.0412     3.2155 
H    0.0974     4.2357     2.5008 
C    0.8386     6.2086     2.8001 
C    1.3175     6.2938     1.3731 
H    2.4096     6.2599     1.3235 
H    0.9792     7.2083     0.8802 
H    0.9340     5.4499     0.8042 
C    0.9340     9.7947     2.0746 
C   -0.3214    10.2711     2.4935 
C   -0.9054     9.9515     3.8407 
H   -1.8298    10.5054     3.9909 
H   -0.2216    10.2328     4.6419 
H   -1.1256     8.8884     3.9444 
C   -1.0485    11.0868     1.6385 
H   -2.0171    11.4494     1.9631 
C   -0.5702    11.4549     0.3876 
C   -1.3661    12.3633    -0.5041 
H   -1.1488    13.4076    -0.2692 
H   -2.4361    12.2099    -0.3687 
H   -1.1201    12.2015    -1.5525 
C    0.6788    10.9903     0.0024 
H    1.0744    11.2770    -0.9650 
C    1.4501    10.1690     0.8171 
C    2.8010     9.7362     0.3148 
H    3.5980     9.9734     1.0202 
H    3.0202    10.2319    -0.6283 
H    2.8470     8.6575     0.1466 
C    6.5125     6.4919     2.9703 
C    7.8926     6.3605     3.0180 
F    8.6773     7.3905     3.3639 
C    8.5702     5.1907     2.7019 
F    9.8985     5.1343     2.7699 
C    7.8597     4.0768     2.3035 
F    8.4887     2.9475     1.9938 
C    6.4816     4.1556     2.2229 
F    5.7807     3.0914     1.8301 
C    5.8512     5.3421     2.5505 
F    4.5104     5.3294     2.4324 
C    6.5237     9.1319     3.8015 
C    7.2007     9.0774     5.0142 
F    7.1825     7.9433     5.7292 
C    7.9229    10.1243     5.5525 
F    8.5494    10.0009     6.7202 
C    7.9931    11.3227     4.8616 
F    8.6782    12.3473     5.3586 
C    7.3418    11.4354     3.6513 
F    7.3999    12.5802     2.9717 
C    6.6306    10.3509     3.1535 
F    6.0416    10.5666     1.9582 
O    4.8367     8.1809     2.0733 
H    5.4221     8.4270     1.3537 
H    2.8553     8.1081     2.2358 
















