77

P    2.2703     8.9286     3.1698 
C    3.2301     9.7485     4.4794 
H    4.0032    10.1943     3.8435 
H    2.6307    10.5794     4.8556 
C    3.9002     8.9273     5.5943 
H    4.8561     9.4145     5.8027 
H    3.3118     9.0297     6.5053 
C    4.1410     7.4557     5.2526 
H    3.1777     6.9758     5.0288 
H    4.5060     6.9433     6.1460 
B    5.2121     7.2538     4.0355 
C    0.8024     7.9110     3.5309 
C    0.2392     7.7461     4.8076 
C    0.7740     8.3753     6.0640 
H   -0.0108     8.4195     6.8168 
H    1.1456     9.3856     5.9138 
H    1.5902     7.7754     6.4683 
C   -0.8886     6.9448     4.9466 
H   -1.3178     6.8267     5.9350 
C   -1.4846     6.3048     3.8716 
C   -2.6844     5.4227     4.0585 
H   -3.2619     5.7211     4.9323 
H   -2.3698     4.3873     4.2057 
H   -3.3337     5.4494     3.1842 
C   -0.9194     6.4881     2.6181 
H   -1.3719     6.0065     1.7587 
C    0.2139     7.2666     2.4202 
C    0.7416     7.3379     1.0068 
H    1.5408     6.6097     0.8590 
H    1.1198     8.3208     0.7299 
H   -0.0547     7.0876     0.3086 
C    1.7714    10.3096     2.0822 
C    0.5117    10.9288     2.2521 
C   -0.4477    10.6252     3.3769 
H   -1.1249    11.4678     3.5050 
H    0.0635    10.4700     4.3263 
H   -1.0485     9.7366     3.1788 
C    0.1288    11.9219     1.3625 
H   -0.8368    12.3957     1.5005 
C    0.9465    12.3457     0.3222 
C    0.4798    13.3962    -0.6432 
H   -0.0503    14.1960    -0.1260 
H   -0.2095    12.9629    -1.3709 
H    1.3152    13.8301    -1.1901 
C    2.2049    11.7802     0.2230 
H    2.8860    12.1337    -0.5429 
C    2.6484    10.7785     1.0846 
C    4.0644    10.3028     0.8712 
H    4.5516     9.8976     1.7543 
H    4.6666    11.1393     0.5194 
H    4.1064     9.5349     0.0951 
C    5.4256     5.6807     3.5662 
C    6.2921     5.4169     2.5112 
F    6.9585     6.4184     1.9260 
C    6.5344     4.1494     2.0107 
F    7.3774     3.9596     0.9979 
C    5.8874     3.0646     2.5751 
F    6.0993     1.8386     2.1087 
C    5.0167     3.2718     3.6266 
F    4.3862     2.2348     4.1759 
C    4.8069     4.5603     4.0955 
F    3.9512     4.6645     5.1242 
C    6.6557     7.8879     4.4983 
C    7.4825     7.1778     5.3592 
F    7.1003     5.9758     5.8142 
C    8.7085     7.6358     5.8102 
F    9.4554     6.9004     6.6294 
C    9.1542     8.8809     5.4070 
F   10.3248     9.3467     5.8287 
C    8.3576     9.6410     4.5731 
F    8.7640    10.8526     4.1969 
C    7.1368     9.1403     4.1474 
F    6.4173     9.9763     3.3775 
C    3.4959     7.7377     2.3800 
O    4.7616     7.9939     2.8069 
H    3.4107     7.8434     1.2979 
H    3.1210     6.7430     2.6592 















