34

C       -0.215919000      0.655362000      0.023353000
H       -0.368282000      1.204840000      0.958436000
H       -0.459912000      1.381748000     -0.756795000
Si      -1.558717000     -0.590573000     -0.027871000
P        1.636856000      0.443489000     -0.090816000
F       -2.769495000     -0.030032000     -0.872440000
F       -1.215609000     -1.989947000     -0.669679000
F       -2.128031000     -0.893858000      1.413582000
C        2.032039000     -0.687352000      1.358196000
C        1.861601000      0.186081000      2.610024000
C        1.174690000     -1.940183000      1.530732000
C        3.511629000     -1.073617000      1.254796000
H        2.477364000      1.085097000      2.557518000
H        0.822517000      0.486735000      2.758222000
H        2.162657000     -0.385647000      3.492053000
H        1.167762000     -2.580213000      0.651970000
H        1.563622000     -2.527279000      2.368461000
H        0.144163000     -1.690197000      1.788448000
H        3.824282000     -1.553861000      2.185817000
H        3.699407000     -1.776118000      0.443413000
H        4.142244000     -0.194965000      1.101825000
C        1.940503000     -0.457093000     -1.727040000
C        1.793828000     -1.977223000     -1.786424000
C        0.992159000      0.168316000     -2.756265000
C        3.377883000     -0.088554000     -2.127140000
H        2.506172000     -2.484169000     -1.136557000
H        0.791417000     -2.310341000     -1.530834000
H        2.000615000     -2.306601000     -2.809474000
H        1.019911000      1.260441000     -2.723827000
H        1.295868000     -0.141906000     -3.759286000
H       -0.040285000     -0.158391000     -2.613818000
H        3.602443000     -0.517184000     -3.107722000
H        3.507095000      0.992839000     -2.185256000
H        4.110436000     -0.476739000     -1.418445000
