40

 C                  1.25830200    0.00814500   -0.63118500
 H                  0.81308800    0.54094300   -1.47842300
 H                  1.43259100   -1.02102300   -0.95069600
 Si                -0.11296400    0.01145800    0.57631900
 P                  2.82734500    0.93423800   -0.25628100
 F                 -0.26372200    1.43115100    1.25293200
 F                 -1.50480000   -0.25663000   -0.12432000
 F                 -0.01376300   -1.00353400    1.78834000
 C                  3.57354200   -0.12155800    1.12097500
 C                  2.96898200    0.43332300    2.42006400
 C                  3.29223700   -1.62268800    1.04219000
 C                  5.08473800    0.11290600    1.19531700
 H                  3.21923800    1.48689100    2.54951000
 H                  1.88385400    0.34042800    2.46064200
 H                  3.37008000   -0.12514300    3.27058100
 H                  3.68800700   -2.07412700    0.13382200
 H                  3.76715700   -2.11964700    1.89367600
 H                  2.22614700   -1.84452800    1.09237500
 H                  5.46436600   -0.31272900    2.12829500
 H                  5.61897400   -0.36616600    0.37577500
 H                  5.32678800    1.17799800    1.19369200
 C                  3.77264100    0.61536200   -1.86676600
 C                  4.16542400   -0.82987300   -2.16507400
 C                  2.86999200    1.11604000   -3.00407600
 C                  5.02219500    1.50578800   -1.86062800
 H                  4.92143600   -1.20212700   -1.47471200
 H                  3.30629900   -1.50264900   -2.12999500
 H                  4.58643300   -0.88917500   -3.17368200
 H                  2.43915600    2.09499200   -2.77890000
 H                  3.46597500    1.21466000   -3.91484800
 H                  2.05980100    0.41909800   -3.21909100
 H                  5.52159000    1.43275500   -2.83090700
 H                  4.75411900    2.55081900   -1.69519600
 H                  5.74168100    1.21617400   -1.09772700
 C                 -1.14683900   -3.09980900   -1.25292100
 H                 -0.85613100   -2.65382600   -2.20243200
 H                 -1.23762500   -4.18017000   -1.38740600
 H                 -2.11103900   -2.68281900   -0.95686800
 O                 -0.12953800   -2.77728700   -0.31959400
 H                 -0.38093000   -3.09720800    0.55169400

