38

C        0.192926000      2.044382000      0.117976000
H       -0.252814000      2.283466000      1.087460000
H        0.134594000      2.981305000     -0.446239000
Si      -1.001140000      0.923401000     -0.700728000
P        2.015295000      1.833066000      0.477982000
F       -1.353307000      1.414975000     -2.159392000
F       -0.606986000     -0.602521000     -0.852407000
F       -2.361106000      0.895138000      0.102114000
C        2.140547000      0.225879000      1.464441000
C        0.975370000      0.236995000      2.460467000
C        2.141673000     -1.108993000      0.720385000
C        3.446362000      0.339499000      2.266203000
H        0.912258000      1.188144000      2.995757000
H        0.015641000      0.042176000      1.977933000
H        1.119997000     -0.558612000      3.194623000
H        3.019905000     -1.222621000      0.085118000
H        2.155290000     -1.919034000      1.455459000
H        1.253143000     -1.242969000      0.109776000
H        3.544720000     -0.531467000      2.919641000
H        4.322831000      0.370797000      1.617652000
H        3.453034000      1.237555000      2.885092000
C        2.762503000      1.615785000     -1.233690000
C        2.082644000      0.627583000     -2.179642000
C        2.712188000      3.008773000     -1.878465000
C        4.236280000      1.236933000     -1.051595000
H        2.017509000     -0.378250000     -1.771852000
H        1.080060000      0.959423000     -2.456969000
H        2.653140000      0.573461000     -3.112046000
H        3.210972000      3.754434000     -1.257846000
H        3.215979000      2.975907000     -2.848347000
H        1.686844000      3.338603000     -2.057183000
H        4.748045000      1.305788000     -2.015262000
H        4.737464000      1.913977000     -0.356248000
H        4.357850000      0.217836000     -0.685904000
C       -1.049707000     -2.758850000      0.951946000
O       -0.616950000     -2.586521000      2.054525000
H       -2.094130000     -2.514265000      0.692803000
H       -0.424231000     -3.166102000      0.139145000



















