70

 C                 15.65222400    6.30341000   10.61354500
 C                 16.16507900    7.50793300   11.10709300
 H                 16.76770900    8.12434300   10.45296800
 C                 15.93695900    7.96612500   12.39978400
 H                 16.35705300    8.91103100   12.72167600
 C                 15.14599000    7.22280600   13.25866800
 H                 14.91443500    7.58092300   14.25354900
 C                 14.68978600    5.98459800   12.83359300
 H                 14.12513000    5.36429400   13.52200400
 C                 14.97983700    5.49716900   11.56102300
 C                 14.58430300    4.05966400   11.28942800
 H                 13.91891300    4.02643100   10.43507500
 H                 14.01539400    3.68952500   12.14328000
 N                 15.71093300    3.12391400   10.98189000
 C                 16.66668800    2.91462800   12.14765500
 C                 17.72024100    1.85782400   11.77603000
 H                 18.39342000    2.29120900   11.02950200
 H                 18.32346500    1.67689000   12.66746100
 C                 17.15801800    0.56643900   11.22417300
 H                 16.56051200    0.04611300   11.97631800
 H                 17.96959600   -0.11011200   10.95094500
 C                 16.32316300    0.90692600   10.00848900
 H                 15.89737200    0.00980800    9.55508800
 H                 16.96544200    1.37183200    9.25117100
 C                 15.16806000    1.86663800   10.31338400
 C                 14.54942500    2.22369600    8.95303200
 H                 15.19665700    2.88017800    8.37445700
 H                 13.56680200    2.68581000    9.03370800
 H                 14.41758200    1.29776600    8.39154700
 C                 14.08487100    1.13562700   11.12033000
 H                 13.27413100    1.80405300   11.40743300
 H                 14.46043000    0.64595300   12.01398700
 H                 13.65332800    0.36174800   10.48329000
 C                 15.97642500    2.51253600   13.45775600
 H                 15.24640500    3.25679900   13.77257000
 H                 16.73667700    2.46519300   14.23906500
 H                 15.48838700    1.54279000   13.41629200
 B                 15.81564000    5.91665800    9.02628700
 C                 16.08581200    5.15122300    6.30017000
 C                 14.63620900    5.08739600    6.79972000
 C                 15.71552600    8.28920600    7.98224100
 C                 14.31259800    8.02604200    7.44209700
 C                 13.60475900    6.92149800    8.22113100
 H                 16.10344200    5.00118500    5.21735000
 H                 14.29574600    4.05178700    6.71741700
 H                 16.22360200    9.01487800    7.33757400
 H                 14.36818800    7.74999700    6.38523400
 H                 16.63776900    4.31083700    6.72632500
 H                 13.99848700    5.65063100    6.11111800
 H                 15.61053600    8.76361100    8.95859800
 H                 13.72567100    8.94699500    7.48147700
 H                 12.61918200    6.73961300    7.77911900
 H                 13.43216800    7.26260900    9.24794100
 C                 16.81010200    6.46226700    6.63853800
 H                 16.49854500    7.22524600    5.91803200
 H                 17.87923800    6.32380100    6.45374900
 C                 14.41463000    5.60697300    8.24777900
 H                 13.77947100    4.88404600    8.75980400
 C                 16.57630500    7.00631500    8.08048000
 H                 17.54728600    7.31397200    8.48616900
 C                 17.47699600    4.18980900   12.44232700
 H                 17.85231600    4.64903800   11.53146500
 H                 16.92146500    4.94192200   12.99292800
 H                 18.33653800    3.90008300   13.04977600
 O                 16.70194500    4.54687100    9.06889000
 H                 16.38171100    3.92224500    9.87863400
 C                 18.11626900    4.66406200    9.01411600
 H                 18.46565000    5.47501100    9.65575400
 H                 18.55946000    3.72112900    9.33459900
 H                 18.40963200    4.86717900    7.98656900