67

C       15.513081000      6.389267000     10.591096000
C       15.821389000      7.624543000     11.168407000
H       16.297373000      8.381452000     10.562066000
C       15.538988000      7.925384000     12.494287000
H       15.794931000      8.898255000     12.895254000
C       14.892435000      6.991841000     13.289087000
H       14.603691000      7.230304000     14.304357000
C       14.637565000      5.734498000     12.766298000
H       14.137861000      5.001395000     13.388991000
C       15.004770000      5.408289000     11.461112000
C       14.780998000      3.989514000     10.996376000
H       14.235953000      3.996201000     10.059871000
H       14.185464000      3.464060000     11.734242000
N       16.001600000      3.106788000     10.733849000
C       16.894235000      2.904780000     12.022368000
C       17.855343000      1.712986000     11.869377000
H       18.653895000      1.973893000     11.179641000
H       18.306507000      1.571621000     12.853307000
C       17.184735000      0.434516000     11.404005000
H       16.439471000      0.088105000     12.124872000
H       17.927699000     -0.359754000     11.322294000
C       16.555474000      0.686163000     10.049172000
H       16.079036000     -0.217199000      9.663850000
H       17.333411000      0.967913000      9.341242000
C       15.466140000      1.765618000     10.062671000
C       15.071329000      2.031840000      8.603712000
H       15.932674000      2.254050000      7.975842000
H       14.342767000      2.831806000      8.485986000
H       14.619029000      1.112598000      8.230166000
C       14.218060000      1.235718000     10.780286000
H       13.343130000      1.853922000     10.590132000
H       14.335786000      1.119496000     11.852425000
H       14.010121000      0.249478000     10.366312000
C       16.044827000      2.657234000     13.272803000
H       15.374146000      3.476470000     13.497813000
H       16.741925000      2.584878000     14.107533000
H       15.485044000      1.727365000     13.247102000
B       15.624900000      6.099578000      9.004448000
C       15.780995000      5.280457000      6.279935000
C       14.342035000      5.362337000      6.824639000
C       15.842744000      8.441139000      7.886029000
C       14.426153000      8.322730000      7.331343000
C       13.572419000      7.370443000      8.165555000
H       15.742443000      5.209528000      5.189795000
H       13.926992000      4.350641000      6.799690000
H       16.448679000      9.056715000      7.212161000
H       14.467219000      7.966598000      6.297483000
H       16.220429000      4.343922000      6.622227000
H       13.720599000      5.937115000      6.130841000
H       15.788023000      8.989774000      8.827637000
H       13.957795000      9.309413000      7.293304000
H       12.566710000      7.309744000      7.736054000
H       13.459560000      7.783386000      9.174871000
C       16.738842000      6.425413000      6.671635000
H       16.681752000      7.214176000      5.914103000
H       17.754198000      6.029213000      6.607894000
C       14.190032000      5.959329000      8.250361000
H       13.468671000      5.347684000      8.805563000
C       16.525281000      7.067804000      8.072607000
H       17.510579000      7.247050000      8.517485000
C       17.739832000      4.160624000     12.275221000
H       18.358583000      4.421140000     11.420289000
H       17.147441000      5.022320000     12.569359000
H       18.412911000      3.920607000     13.099875000
O       16.347333000      4.642867000      8.939328000
C       16.906418000      3.743677000      9.585234000
O       17.958528000      3.195980000      9.414278000
