67

 C                 15.53556300    6.27793600   10.61642200
 C                 15.99847400    7.47824400   11.16862000
 H                 16.61659200    8.12440400   10.56027600
 C                 15.71620300    7.88905600   12.46626100
 H                 16.10185100    8.83393800   12.82959300
 C                 14.92283000    7.10026700   13.28345000
 H                 14.65496300    7.42171900   14.28157600
 C                 14.50935100    5.86765000   12.80494700
 H                 13.93535000    5.21220200   13.45265700
 C                 14.84656800    5.44022900   11.52153100
 C                 14.48249600    4.01571100   11.18389400
 H                 13.85707600    3.99119900   10.29968400
 H                 13.92499100    3.57081900   12.00428900
 N                 15.65441200    3.11029700   10.87308100
 C                 16.65696300    2.92847400   12.02951400
 C                 17.73094800    1.91640500   11.60290200
 H                 18.35710700    2.38845700   10.83814100
 H                 18.36932400    1.75058900   12.47208300
 C                 17.19821000    0.61131000   11.05272900
 H                 16.61989000    0.07159800   11.80642000
 H                 18.02699500   -0.03997900   10.77186200
 C                 16.35288700    0.93322100    9.83879000
 H                 15.95647400    0.02819800    9.37545300
 H                 16.97659100    1.42939800    9.08764900
 C                 15.15899600    1.84084300   10.14605000
 C                 14.56262500    2.25038900    8.79343800
 H                 15.19951700    2.97276900    8.28456900
 H                 13.55684100    2.65953400    8.87174700
 H                 14.49630600    1.35279400    8.17741100
 C                 14.09577500    1.07879700   10.93604500
 H                 13.24619400    1.70886400   11.19330000
 H                 14.47221200    0.61154400   11.84158100
 H                 13.72051700    0.28370300   10.29026900
 C                 15.97779000    2.49199700   13.32430800
 H                 15.24154600    3.22298100   13.65482600
 H                 16.74549800    2.44142400   14.09750000
 H                 15.50531100    1.51528100   13.26496300
 B                 15.81990700    5.89637600    9.02763100
 C                 16.19206400    5.23580800    6.28893700
 C                 14.71919300    5.18003400    6.72486100
 C                 15.82343900    8.33017900    8.01732200
 C                 14.45245500    8.09821900    7.38854100
 C                 13.67130100    7.01087100    8.12218600
 H                 16.24723000    5.16657700    5.19883000
 H                 14.37760000    4.14783900    6.60327200
 H                 16.38681300    9.04665400    7.40816200
 H                 14.57183700    7.81735800    6.33773100
 H                 16.69211000    4.34734500    6.67500900
 H                 14.11203600    5.75840100    6.02098900
 H                 15.66391700    8.80882400    8.98475300
 H                 13.88412800    9.03199700    7.38777000
 H                 12.70147600    6.87076800    7.63122000
 H                 13.46189800    7.35088300    9.14294100
 C                 16.97662600    6.47924700    6.75110200
 H                 16.83032900    7.28245600    6.02095900
 H                 18.04150100    6.23484500    6.69187200
 C                 14.43488600    5.67099700    8.17091900
 H                 13.74482300    4.95615700    8.62900700
 C                 16.63387200    7.02616700    8.17021100
 H                 17.58154800    7.29197500    8.66124500
 C                 17.41954800    4.23704500   12.29936300
 H                 17.73998800    4.71055400   11.37332100
 H                 16.85124900    4.96201700   12.87327200
 H                 18.30840100    3.97285100   12.87490400
 H                 16.20574800    3.67377200   10.10613300
 O                 16.67246800    4.59111800    9.04567900
 H                 17.60052500    4.81545000    8.93761200