69

C       15.833477000      6.562616000     10.758810000
C       16.392794000      7.635723000     11.463175000
H       17.038749000      8.322229000     10.932797000
C       16.164010000      7.876237000     12.812205000
H       16.624237000      8.729746000     13.294661000
C       15.322281000      7.040010000     13.526452000
H       15.087719000      7.236194000     14.564535000
C       14.812632000      5.921370000     12.889165000
H       14.192162000      5.231517000     13.451740000
C       15.103157000      5.647771000     11.552178000
C       14.610548000      4.313427000     11.041623000
H       14.021445000      4.448916000     10.143934000
H       13.981623000      3.842265000     11.791454000
N       15.681244000      3.302639000     10.664278000
C       16.631197000      2.885585000     11.816656000
C       17.574505000      1.778716000     11.321612000
H       18.285165000      2.227501000     10.622439000
H       18.140108000      1.446238000     12.193674000
C       16.889563000      0.617402000     10.633223000
H       16.210894000      0.090105000     11.308504000
H       17.636052000     -0.109441000     10.311109000
C       16.155383000      1.169768000      9.429034000
H       15.675174000      0.377175000      8.852562000
H       16.877857000      1.663878000      8.771237000
C       15.063099000      2.179154000      9.790051000
C       14.576976000      2.798445000      8.473849000
H       15.314480000      3.484760000      8.058101000
H       13.625292000      3.318998000      8.566388000
H       14.430590000      1.983916000      7.764102000
C       13.885252000      1.490859000     10.474485000
H       13.093858000      2.191013000     10.736356000
H       14.162182000      0.925985000     11.359820000
H       13.464317000      0.786427000      9.755872000
C       15.857966000      2.435605000     13.050996000
H       15.211299000      3.221434000     13.435846000
H       16.590235000      2.217034000     13.828899000
H       15.269627000      1.535393000     12.893113000
B       16.047295000      6.447702000      9.123646000
C       16.350009000      6.216896000      6.299105000
C       14.893714000      6.078453000      6.770646000
C       16.043613000      8.986962000      8.529414000
C       14.657795000      8.873571000      7.901209000
C       13.883985000      7.682276000      8.457980000
H       16.367587000      6.309643000      5.210062000
H       14.559857000      5.067634000      6.518869000
H       16.596273000      9.800778000      8.046807000
H       14.750639000      8.773035000      6.815660000
H       16.874275000      5.284592000      6.516796000
H       14.259055000      6.742651000      6.174903000
H       15.910717000      9.280053000      9.572142000
H       14.098877000      9.797106000      8.071622000
H       12.907560000      7.620620000      7.964668000
H       13.689510000      7.850802000      9.523510000
C       17.129653000      7.392572000      6.912370000
H       16.906293000      8.297456000      6.338482000
H       18.195025000      7.210466000      6.743563000
C       14.648061000      6.355442000      8.279359000
H       13.973989000      5.575702000      8.641196000
C       16.861367000      7.678785000      8.420890000
H       17.828385000      7.873122000      8.901925000
C       17.543004000      4.061981000     12.193886000
H       17.968242000      4.531138000     11.308352000
H       17.055703000      4.820327000     12.797493000
H       18.368880000      3.646119000     12.772977000
C       18.075410000      4.901603000      8.703205000
O       16.811368000      5.077671000      8.961459000
O       18.612652000      3.818824000      8.785500000
H       18.624500000      5.805466000      8.407253000
H       16.283288000      3.830613000      9.992476000




















