62

P    3.3128     3.8336     4.7926 
C    2.9108     2.2342     4.0379 
H    3.7520     2.0185     3.3685 
H    3.0507     1.5528     4.8872 
C    1.5888     1.9363     3.3732 
C    1.0067     4.3004     2.6181 
H    1.0556     4.7989     3.5928 
H    0.1018     4.7083     2.1679 
C    4.8293     3.5085     5.7092 
C    4.7465     3.0510     7.0223 
C    5.9042     2.7170     7.7091 
H    5.8402     2.3688     8.7313 
C    7.1386     2.8382     7.0873 
C    7.2200     3.2968     5.7792 
H    8.1828     3.3999     5.2972 
C    6.0690     3.6353     5.0857 
C    2.0447     4.2987     5.9771 
C    1.0377     3.3991     6.3213 
C    0.0896     3.7623     7.2668 
H   -0.6962     3.0673     7.5310 
C    0.1451     5.0139     7.8623 
C    1.1508     5.9085     7.5188 
H    1.1915     6.8855     7.9811 
C    2.1055     5.5568     6.5787 
B    2.2937     4.8059     1.6960 
C    1.8175     6.0074     0.6860 
F    2.6683     5.1383    -1.3549 
C    2.0188     6.0965    -0.6824 
F    1.8024     7.1929    -2.7617 
C    1.5848     7.1682    -1.4500 
F    0.5107     9.2558    -1.5642 
C    0.9298     8.2220    -0.8453 
F    0.1003     9.2044     1.1202 
C    0.7204     8.1908     0.5221 
F    0.9429     7.1365     2.5680 
C    1.1653     7.1007     1.2453 
C    3.0074     3.5518     0.9319 
C    2.2381     2.7918     0.0604 
C    4.3027     3.1004     1.0914 
C    2.7024     1.6832    -0.6169 
C    4.8199     1.9904     0.4367 
C    4.0147     1.2780    -0.4280 
F    5.1488     3.7019     1.9553 
F    6.0755     1.6030     0.6498 
F    4.4859     0.2130    -1.0636 
F    1.9149     1.0006    -1.4407 
F    0.9640     3.1429    -0.1512 
C    1.2703     0.4659     3.3818 
H    2.0729    -0.1081     2.9092 
H    1.1655     0.0832     4.4021 
H    0.3462     0.2651     2.8432 
C    0.7952     2.8291     2.7878 
H   -0.0988     2.4225     2.3239 
H    8.0414     2.5809     7.6256 
H    3.7846     2.9677     7.5139 
H    6.1401     4.0090     4.0732 
H    2.8912     6.2514     6.3094 
H   -0.6001     5.2959     8.5946 
H    0.9759     2.4295     5.8453 
O    4.3883     6.1429     4.4165 
O    3.3275     5.5429     2.5641 
C    3.7244     5.3879     3.7553 



































 
