65

P    3.5994     3.5951     5.0059 
C    2.9076     1.9074     4.7781 
H    3.8053     1.2879     4.6694 
H    2.4485     1.5852     5.7208 
C    2.0012     1.5792     3.6152 
C    1.3507     3.8848     2.5623 
H    1.4457     4.4324     3.5031 
H    0.3395     4.1095     2.2178 
C    4.9273     3.2398     6.2088 
C    4.6855     3.0168     7.5641 
C    5.7305     2.6947     8.4166 
H    5.5346     2.5249     9.4674 
C    7.0255     2.5882     7.9243 
C    7.2749     2.8065     6.5774 
H    8.2823     2.7269     6.1903 
C    6.2299     3.1356     5.7244 
C    2.3581     4.4605     6.0226 
C    1.0318     4.0401     6.0900 
C    0.1014     4.7678     6.8221 
H   -0.9269     4.4330     6.8636 
C    0.4862     5.9175     7.4943 
C    1.8070     6.3460     7.4298 
H    2.1133     7.2431     7.9521 
C    2.7340     5.6264     6.6938 
B    2.3928     4.4828     1.4422 
C    1.8893     5.8110     0.6357 
F    3.5340     5.5375    -1.0433 
C    2.4993     6.2215    -0.5456 
F    2.7224     7.6635    -2.3989 
C    2.1063     7.3328    -1.2700 
F    0.6711     9.1817    -1.4800 
C    1.0615     8.1110    -0.8046 
F   -0.5426     8.5235     0.8559 
C    0.4422     7.7680     0.3813 
F    0.2540     6.4244     2.2430 
C    0.8700     6.6461     1.0741 
C    2.9135     3.2748     0.4808 
C    2.2595     2.9343    -0.6940 
C    3.9216     2.3988     0.8489 
C    2.5942     1.8375    -1.4699 
C    4.2932     1.2904     0.1093 
C    3.6248     1.0082    -1.0670 
F    4.5917     2.5787     2.0052 
F    5.2702     0.4905     0.5272 
F    3.9605    -0.0494    -1.7935 
F    1.9333     1.5713    -2.5909 
F    1.2310     3.6729    -1.1302 
C    1.8453     0.0851     3.4648 
H    2.8102    -0.3799     3.2412 
H    1.4834    -0.3678     4.3919 
H    1.1501    -0.1668     2.6660 
C    1.3982     2.3931     2.7467 
H    0.8329     1.8708     1.9773 
H    7.8394     2.3377     8.5923 
H    3.6780     3.1035     7.9536 
H    6.4260     3.3097     4.6720 
H    3.7647     5.9626     6.6518 
H   -0.2398     6.4819     8.0646 
H    0.7150     3.1513     5.5559 
C    3.6212     6.3131     2.8570 
H    4.4456     6.3834     3.5633 
H    3.7231     7.0640     2.0808 
H    2.6688     6.4236     3.3779 
O    3.7013     5.0200     2.2286 
H    3.9105     4.3794     2.9646 


























 
