61

P    2.5364     3.9086     4.5403 
C    2.4879     2.1231     4.3046 
H    3.4085     1.8857     3.7626 
H    2.6177     1.7435     5.3263 
C    1.2993     1.4574     3.6418 
C    0.8246     3.2398     1.8695 
H    0.5791     4.0855     2.5264 
H    0.0761     3.3037     1.0796 
C    4.1673     4.3458     5.1339 
C    4.4569     4.4139     6.4947 
C    5.7505     4.7014     6.9013 
H    5.9825     4.7598     7.9563 
C    6.7443     4.9169     5.9548 
C    6.4533     4.8455     4.5989 
H    7.2278     5.0145     3.8630 
C    5.1631     4.5590     4.1802 
C    1.2891     4.4361     5.7116 
C    0.2993     3.5563     6.1414 
C   -0.6715     3.9995     7.0290 
H   -1.4439     3.3192     7.3614 
C   -0.6545     5.3104     7.4806 
C    0.3317     6.1899     7.0484 
H    0.3404     7.2131     7.3989 
C    1.3039     5.7566     6.1638 
B    2.3308     3.3782     1.2108 
C    2.6651     4.8697     0.6166 
F    4.9784     4.3868     0.7391 
C    3.9907     5.2504     0.4446 
F    5.6824     6.7930    -0.1489 
C    4.3910     6.4916    -0.0183 
F    3.7858     8.6319    -0.7873 
C    3.4296     7.4310    -0.3434 
F    1.1617     8.0030    -0.5068 
C    2.0946     7.1055    -0.1966 
F    0.4289     5.6165     0.3774 
C    1.7432     5.8487     0.2730 
C    2.5336     2.2163     0.0866 
C    1.9685     2.2943    -1.1771 
C    3.2386     1.0506     0.3393 
C    2.0995     1.3076    -2.1394 
C    3.3946     0.0342    -0.5891 
C    2.8218     0.1660    -1.8404 
F    3.8170     0.8455     1.5367 
F    4.0848    -1.0667    -0.2923 
F    2.9586    -0.7981    -2.7457 
F    1.5375     1.4364    -3.3393 
F    1.2410     3.3690    -1.5120 
C    1.0227     0.0919     4.2096 
H    0.7613     0.1384     5.2722 
H    0.2060    -0.3926     3.6780 
H    1.9087    -0.5448     4.1287 
C    0.6237     1.9466     2.6020 
H   -0.1526     1.2908     2.2150 
H    7.7521     5.1438     6.2770 
H    3.6766     4.2546     7.2295 
H    4.9351     4.4926     3.1213 
H    2.0750     6.4405     5.8281 
H   -1.4148     5.6524     8.1705 
H    0.2717     2.5391     5.7720 
H    3.1889     3.1789     2.0454 
H    2.3766     4.6417     3.3715 






















 
