64

P        3.960589000      3.520699000      4.804727000
C        2.982772000      1.937224000      4.663830000
H        3.395041000      1.272470000      5.425483000
H        1.951084000      2.140396000      4.944863000
C        3.062342000      1.262642000      3.317890000
C        1.156363000      2.559971000      2.276651000
H        0.955598000      2.954304000      3.274404000
H        0.213114000      2.158382000      1.896213000
C        4.575842000      3.435934000      6.526080000
C        4.277672000      4.385454000      7.499652000
C        4.830002000      4.284050000      8.770908000
H        4.587001000      5.027465000      9.519127000
C        5.682902000      3.237121000      9.083357000
C        5.991896000      2.288835000      8.115699000
H        6.662008000      1.471610000      8.349078000
C        5.447764000      2.392543000      6.846378000
C        2.705499000      4.849965000      4.885980000
C        1.465264000      4.705520000      5.507650000
C        0.571383000      5.764963000      5.557237000
H       -0.392582000      5.634256000      6.031694000
C        0.910390000      6.989906000      4.995776000
C        2.143835000      7.150226000      4.381960000
H        2.413175000      8.101043000      3.939362000
C        3.031767000      6.083909000      4.325899000
B        1.631272000      3.782943000      1.316369000
C        0.848460000      5.195935000      1.531708000
F        2.521233000      6.334081000      0.311781000
C        1.375204000      6.372472000      1.020305000
F        1.382647000      8.711012000      0.692595000
C        0.805878000      7.620290000      1.188273000
F       -0.927748000      8.910774000      2.114545000
C       -0.372741000      7.724080000      1.903583000
F       -2.064585000      6.677022000      3.139745000
C       -0.948902000      6.581747000      2.423029000
F       -0.974043000      4.303203000      2.757900000
C       -0.339164000      5.352296000      2.230237000
C        1.723677000      3.327839000     -0.253312000
C        0.642669000      3.532528000     -1.105487000
C        2.772202000      2.622042000     -0.828332000
C        0.609873000      3.110199000     -2.423612000
C        2.787457000      2.185422000     -2.142751000
C        1.695047000      2.434135000     -2.950847000
F        3.871198000      2.313313000     -0.108526000
F        3.834542000      1.526241000     -2.625898000
F        1.683160000      2.021889000     -4.209605000
F       -0.453747000      3.340221000     -3.182790000
F       -0.459694000      4.144925000     -0.662696000
C        4.195174000      0.286415000      3.177100000
H        5.153692000      0.784618000      3.363234000
H        4.113733000     -0.524098000      3.906899000
H        4.230083000     -0.145563000      2.178081000
C        2.205872000      1.499369000      2.323425000
H        2.339236000      0.918674000      1.413552000
H        6.109120000      3.159775000     10.074954000
H        3.610766000      5.206988000      7.271624000
H        5.707045000      1.654621000      6.093648000
H        3.993158000      6.218840000      3.841804000
H        0.208529000      7.814192000      5.030364000
H        1.191110000      3.765803000      5.971012000
C        4.152912000      4.390286000      1.350090000
O        3.083704000      4.093564000      1.883657000
O        5.245035000      4.415389000      2.023828000
H        4.237746000      4.659515000      0.299757000
H        5.060964000      4.098634000      2.968332000





















































