64

C    7.6124    12.6830     6.1679 
H    7.4307    13.3955     5.3632 
H    6.7574    12.7208     6.8463 
H    7.6149    11.6801     5.7363 
C   11.4057    15.8879     6.6533 
H   10.8376    16.3720     5.8599 
H   12.4174    15.7038     6.2831 
H   11.4972    16.5930     7.4831 
C   12.5762    14.2404     8.7815 
H   12.8640    13.5170     9.5428 
H   12.4731    15.2160     9.2631 
H   13.3977    14.3270     8.0657 
C    8.9043    13.0101     6.8788 
C    9.5621    14.1844     6.5016 
H    9.1295    14.7926     5.7126 
C   10.7415    14.6123     7.0910 
C   11.2989    13.8252     8.1052 
C   10.6411    12.6610     8.4747 
H   11.0750    12.0608     9.2703 
B    8.9128    10.7987     8.5393 
C    7.7069    13.2090    10.1841 
H    6.9923    13.7379    10.8162 
H    7.2449    13.0398     9.2121 
H    8.5562    13.8721    10.0023 
C    8.2604    10.7035    14.4660 
H    7.7805    11.6117    14.8285 
H    9.2223    10.6030    14.9753 
H    7.6495     9.8512    14.7740 
C    9.5019     8.4638    13.0393 
H    9.9429     7.7371    12.3579 
H    8.6843     7.9740    13.5746 
H   10.2552     8.7265    13.7864 
C    8.1561    11.9302    10.8526 
C    8.0137    11.8441    12.2373 
H    7.5594    12.6770    12.7662 
C    8.4328    10.7444    12.9730 
C    9.0223     9.6770    12.2909 
C    9.1531     9.7617    10.9098 
H    9.6219     8.9300    10.3936 
C    8.7360    10.8595    10.1516 
C    9.0539     8.4161     5.0285 
H    8.4255     7.6008     4.6839 
H   10.0915     8.2022     4.7746 
H    8.7392     9.3492     4.5678 
C    9.1935     7.2507     7.1709 
H    9.2376     7.4369     8.2407 
H   10.1387     6.8422     6.8153 
H    8.3739     6.5767     6.9353 
C    7.6257     9.0959     6.9347 
N    8.9568     8.5578     6.5006 
C    6.4990     8.4749     6.4000 
H    6.5835     7.6696     5.6816 
C    5.2443     8.8882     6.8030 
H    4.3618     8.4192     6.3892 
C    5.1384     9.8901     7.7620 
H    4.1624    10.2035     8.1101 
C    6.2782    10.4714     8.2836 
H    6.1753    11.2209     9.0585 
C    7.5736    10.1189     7.8748 
C    9.4422    12.2158     7.9016 
C   10.1027     9.5244     6.9382 
O   10.0235     9.7811     8.2383 
H    9.9745    10.4011     6.2879 
H   11.0147     8.9797     6.6726 





























 
