52

 B                  3.08270000   -4.19540000   -2.88260000
 C                  4.64700000   -5.21570000   -3.98200000
 H                  4.88840000   -5.90910000   -3.16830000
 C                  3.14430000   -5.19840000   -4.16780000
 H                  2.92460000   -4.62150000   -5.07260000
 C                  5.41470000   -5.63820000   -5.21650000
 H                  6.49860000   -5.64090000   -5.08070000
 H                  5.17510000   -4.98000000   -6.05660000
 C                  4.91640000   -7.06650000   -5.51460000
 H                  5.26420000   -7.72460000   -4.71160000
 H                  5.37860000   -7.42820000   -6.43430000
 C                  3.38840000   -7.17350000   -5.62540000
 H                  3.11690000   -8.21810000   -5.78990000
 H                  3.06210000   -6.62270000   -6.51370000
 C                  2.63800000   -6.60830000   -4.40800000
 H                  1.56420000   -6.62450000   -4.59180000
 H                  2.82450000   -7.23250000   -3.52610000
 C                  2.82830000   -4.94760000   -1.45640000
 C                  3.54920000   -4.94680000   -0.27250000
 F                  4.69230000   -4.25950000   -0.15420000
 C                  3.15540000   -5.62610000    0.87190000
 F                  3.90960000   -5.59220000    1.96580000
 C                  1.97030000   -6.33240000    0.87650000
 F                  1.57830000   -6.98510000    1.96120000
 C                  1.18900000   -6.33520000   -0.26550000
 F                  0.03050000   -6.98430000   -0.27290000
 C                  1.62340000   -5.64720000   -1.38280000
 F                  0.79250000   -5.64060000   -2.42990000
 C                  2.15460000   -2.87240000   -2.95130000
 C                  1.03380000   -2.75470000   -3.75890000
 F                  0.68050000   -3.73750000   -4.59040000
 C                  0.21830000   -1.63170000   -3.75400000
 F                 -0.84630000   -1.56300000   -4.54500000
 C                  0.51870000   -0.57230000   -2.91810000
 F                 -0.24830000    0.50860000   -2.90670000
 C                  1.62970000   -0.64570000   -2.09390000
 F                  1.92940000    0.37020000   -1.29190000
 C                  2.40860000   -1.78620000   -2.12860000
 F                  3.48210000   -1.82260000   -1.32190000
 C                  4.81630000   -2.73620000   -4.30570000
 C                  5.91330000   -3.63800000   -2.47600000
 C                  6.30430000   -2.60500000   -4.64460000
 H                  4.45760000   -1.84210000   -3.79720000
 H                  4.17260000   -2.92030000   -5.16200000
 C                  7.03240000   -3.24190000   -3.44300000
 H                  6.12530000   -4.53500000   -1.90390000
 H                  5.68140000   -2.83140000   -1.78440000
 H                  6.54570000   -3.12780000   -5.56800000
 H                  6.57050000   -1.55890000   -4.78200000
 H                  7.60110000   -4.11690000   -3.75390000
 H                  7.72880000   -2.55590000   -2.96510000
 N                  4.71700000   -3.85720000   -3.32830000