58

 B                  2.50643600   -3.82227500   -2.89953600
 C                  4.67646500   -5.07973100   -3.81357900
 H                  4.62275000   -5.75830900   -2.95562200
 C                  3.26164800   -4.59396200   -4.15202600
 H                  3.36490300   -3.88644300   -4.97993500
 C                  5.36540100   -5.80191500   -4.96648500
 H                  6.35990800   -6.14645800   -4.66868000
 H                  5.48969700   -5.11056800   -5.80538500
 C                  4.51618200   -6.97889600   -5.44217100
 H                  4.42947400   -7.71404900   -4.63539600
 H                  5.01731000   -7.47749400   -6.27335500
 C                  3.12437300   -6.50314800   -5.84294000
 H                  2.51786100   -7.34971500   -6.16990200
 H                  3.20375800   -5.81876600   -6.69425300
 C                  2.45273500   -5.78906500   -4.67501700
 H                  1.45438400   -5.45188500   -4.95627900
 H                  2.31417600   -6.51378800   -3.86481600
 C                  2.34186800   -4.92852400   -1.65939700
 C                  3.31129600   -5.13769900   -0.69171200
 F                  4.45829300   -4.41696500   -0.69340500
 C                  3.22367900   -6.07991100    0.32116600
 F                  4.20533600   -6.21544300    1.21087400
 C                  2.10999100   -6.89161400    0.39227200
 F                  2.00124600   -7.80679200    1.34693500
 C                  1.11505200   -6.74334400   -0.55758400
 F                  0.04197400   -7.52554700   -0.51094200
 C                  1.25313900   -5.78591300   -1.54736800
 F                  0.24780000   -5.71957600   -2.42959700
 C                  1.04167300   -3.15601500   -3.31254300
 C                  0.67535400   -2.78443700   -4.59948700
 F                  1.48619400   -3.00114200   -5.64893900
 C                 -0.52590200   -2.17007000   -4.92068500
 F                 -0.80727900   -1.85083500   -6.18178000
 C                 -1.43350000   -1.88132600   -3.92219000
 F                 -2.58639500   -1.28962300   -4.20758200
 C                 -1.11709300   -2.21251400   -2.61826000
 F                 -1.97346800   -1.93379000   -1.63971600
 C                  0.09280700   -2.82757500   -2.34950500
 F                  0.31597100   -3.10470700   -1.05519500
 C                  5.97943500   -2.94533600   -4.33917000
 C                  6.71044400   -4.26815000   -2.51378600
 C                  7.40978000   -3.36189100   -4.68361500
 H                  5.95182200   -1.96129900   -3.87135300
 H                  5.29190900   -2.93519000   -5.17997200
 C                  7.90537300   -4.17758400   -3.47053900
 H                  6.56808500   -5.24685300   -2.06377000
 H                  6.78839700   -3.53746200   -1.70970500
 H                  7.43032600   -3.96848700   -5.58626700
 H                  8.02604900   -2.48430000   -4.86722400
 H                  8.23535700   -5.16750800   -3.77879300
 H                  8.74725200   -3.69835300   -2.97520600
 N                  5.49870300   -3.91113500   -3.30587600
 C                  3.05437100   -1.86891700   -1.41479800
 H                  2.81098300   -2.44481000   -0.51763300
 H                  3.89439300   -1.20910300   -1.19315800
 H                  2.18880700   -1.25320400   -1.67429100
 O                  3.41151200   -2.70451300   -2.48922500
 H                  4.78648800   -3.37209600   -2.72077900

