60

N   -0.0576     3.2693    18.1779 
C   -0.1096     2.8663    16.7764 
H    0.8825     2.5773    16.4181 
H   -0.7125     1.9624    16.6645 
C   -0.6837     3.9273    15.8357 
H   -0.0404     4.8091    15.8327 
H   -1.6474     4.2521    16.2310 
C   -0.8661     3.3735    14.4219 
H   -1.4352     4.0893    13.8076 
H   -1.5176     2.4955    14.4562 
C   -0.9966     2.5308    19.0533 
C   -1.0005     3.1594    20.4528 
H   -1.4733     4.1439    20.3819 
H   -1.6278     2.5437    21.1019 
C    0.3903     3.3324    21.0366 
H    0.3295     3.8142    22.0143 
H    0.8683     2.3635    21.2005 
C    1.2085     4.1851    20.0839 
H    2.2238     4.3352    20.4587 
H    0.7395     5.1711    20.0103 
C    1.2996     3.5958    18.6710 
C   -2.4168     2.7002    18.4983 
H   -3.1347     2.2882    19.2095 
H   -2.5658     2.1833    17.5494 
H   -2.6371     3.7586    18.3565 
C   -0.6992     1.0231    19.1709 
H    0.1757     0.8217    19.7855 
H   -0.5309     0.5689    18.1934 
H   -1.5481     0.5132    19.6305 
C    2.2813     2.4072    18.6699 
H    2.2988     1.8966    17.7052 
H    2.0400     1.6690    19.4317 
H    3.2937     2.7656    18.8668 
C    1.8851     4.6925    17.7760 
H    1.2062     5.5451    17.7320 
H    2.0607     4.3368    16.7617 
H    2.8427     5.0262    18.1809 
C    0.3402     2.2489    12.2223 
F   -2.0292     2.0827    12.2720 
C   -0.8728     1.8114    11.6762 
F   -2.1444     0.7112    10.0286 
C   -0.9661     1.0968    10.4965 
F    0.1154     0.1079     8.6696 
C    0.1866     0.7883     9.7964 
F    2.5183     0.9176     9.6090 
C    1.4136     1.2043    10.2816 
F    2.6881     2.2906    11.8440 
C    1.4706     1.9206    11.4630 
C    1.7996     3.6531    14.0527 
F    2.6510     1.5370    14.6023 
C    2.8185     2.8627    14.5561 
F    4.9518     2.5972    15.5223 
C    4.0066     3.3854    15.0294 
F    5.3299     5.2782    15.4459 
C    4.2012     4.7577    14.9915 
F    3.3876     6.8957    14.4680 
C    3.2071     5.5826    14.4956 
F    1.0744     5.8352    13.5831 
C    2.0248     5.0172    14.0474 
B    0.4105     3.0614    13.5688 









 
