62

N   -0.2635     3.5150    18.1830 
C   -0.0405     2.8865    16.8178 
H    0.7930     3.4006    16.3618 
H    0.2471     1.8481    16.9562 
C   -1.2585     3.0013    15.9238 
H   -1.4893     4.0640    15.7912 
H   -2.1214     2.5323    16.4121 
C   -0.9741     2.3836    14.5513 
H   -1.8569     2.5617    13.9345 
H   -0.9033     1.2955    14.6540 
C   -0.3540     2.4944    19.3278 
C   -0.7338     3.2579    20.6002 
H   -1.7607     3.6261    20.4934 
H   -0.7456     2.5390    21.4211 
C    0.1851     4.4291    20.9101 
H   -0.1687     4.9440    21.8036 
H    1.1931     4.0794    21.1386 
C    0.1984     5.3965    19.7367 
H    0.8775     6.2303    19.9232 
H   -0.8015     5.8296    19.6188 
C    0.6182     4.7630    18.4074 
C   -1.4859     1.5284    18.9810 
H   -1.6538     0.8794    19.8402 
H   -1.2552     0.8971    18.1243 
H   -2.4175     2.0611    18.7802 
C    0.9476     1.7201    19.5126 
H    1.7317     2.3111    19.9746 
H    1.3315     1.3133    18.5785 
H    0.7359     0.8783    20.1722 
C    2.1075     4.4117    18.3934 
H    2.3453     3.5950    17.7134 
H    2.4822     4.1584    19.3819 
H    2.6606     5.2814    18.0414 
C    0.2922     5.7414    17.2779 
H   -0.7813     5.9363    17.2201 
H    0.6437     5.4079    16.3021 
H    0.7867     6.6859    17.5049 
C    0.3287     2.9718    12.1940 
F   -1.2647     1.2276    11.9876 
C   -0.4382     2.1169    11.4179 
F   -1.1759     1.2647     9.3380 
C   -0.4096     2.1070    10.0311 
F    0.4695     2.9827     8.0309 
C    0.4272     2.9776     9.3608 
F    2.0418     4.6809     9.4518 
C    1.2254     3.8416    10.0892 
F    1.9726     4.6635    12.1199 
C    1.1619     3.8161    11.4709 
C    1.7555     2.3390    14.3161 
F    1.1039     0.2427    13.4568 
C    2.0122     0.9930    14.0906 
F    3.3585    -0.9469    14.2462 
C    3.1739     0.3492    14.4866 
F    5.2739     0.4692    15.5483 
C    4.1547     1.0663    15.1489 
F    4.8823     3.1133    16.0477 
C    3.9529     2.4117    15.3948 
F    2.6511     4.3180    15.2733 
C    2.7780     3.0105    14.9683 
B    0.3440     3.0460    13.8278 
H    0.3921     4.2217    14.1389 
H   -1.2111     3.9021    18.1333 











 
