63

N   -0.0854     3.2167    18.2756 
C   -0.1295     2.7141    16.9085 
H    0.8903     2.4868    16.5738 
H   -0.6818     1.7654    16.8839 
C   -0.7776     3.6633    15.8994 
H   -0.1710     4.5691    15.8360 
H   -1.7428     3.9743    16.3032 
C   -0.9648     3.0711    14.4952 
H   -1.3732     3.8599    13.8664 
H   -1.7420     2.2957    14.5201 
C   -0.9586     2.4853    19.2223 
C   -0.9868     3.2185    20.5695 
H   -1.5309     4.1580    20.4333 
H   -1.5580     2.6120    21.2763 
C    0.3964     3.5354    21.1089 
H    0.3151     4.0844    22.0488 
H    0.9478     2.6194    21.3351 
C    1.1335     4.3715    20.0784 
H    2.1391     4.6263    20.4209 
H    0.5896     5.3108    19.9398 
C    1.2516     3.6849    18.7121 
C   -2.3946     2.5122    18.6833 
H   -3.0708     2.1044    19.4364 
H   -2.5223     1.9183    17.7771 
H   -2.6921     3.5387    18.4685 
C   -0.5522     1.0164    19.4501 
H    0.3531     0.9258    20.0464 
H   -0.3838     0.4929    18.5073 
H   -1.3491     0.4891    19.9779 
C    2.3218     2.5782    18.7841 
H    2.3807     2.0050    17.8567 
H    2.1420     1.8788    19.5978 
H    3.3037     3.0271    18.9453 
C    1.7399     4.7546    17.7281 
H    0.9965     5.5468    17.6358 
H    1.9377     4.3497    16.7349 
H    2.6709     5.1891    18.0970 
C    0.2677     2.1354    12.1833 
F   -1.6310     3.4619    11.6697 
C   -0.6481     2.6519    11.2776 
F   -1.5080     2.8946     9.0969 
C   -0.6072     2.3719     9.9186 
F    0.4172     1.2601     8.1214 
C    0.3735     1.5388     9.4149 
F    2.2559     0.1882     9.8141 
C    1.3091     0.9944    10.2777 
F    2.1691     0.7534    12.4213 
C    1.2301     1.3097    11.6189 
C    1.7278     3.2432    14.1210 
F    2.9179     1.4531    15.1386 
C    2.8624     2.7454    14.7391 
F    5.0315     2.9662    15.6364 
C    3.9859     3.5042    15.0210 
F    5.0614     5.5894    14.9322 
C    4.0022     4.8402    14.6673 
F    2.9039     6.6682    13.6915 
C    2.8974     5.3882    14.0374 
F    0.7603     5.1596    13.1630 
C    1.7994     4.5870    13.7784 
B    0.3353     2.4556    13.7791 
O    0.4560     0.9441    14.4222 
H    0.4203     0.9899    15.3917 
H    1.2920     0.5162    14.1704 




























 
