65

N        0.003466000      3.132964000     17.852902000
C       -0.016097000      3.265854000     16.397710000
H        0.899492000      2.862997000     15.958385000
H       -0.817063000      2.654511000     15.983103000
C       -0.213900000      4.701909000     15.908202000
H        0.697858000      5.276620000     16.087615000
H       -0.993943000      5.167486000     16.512167000
C       -0.603454000      4.783663000     14.421398000
H       -0.686002000      5.844210000     14.159992000
H       -1.620184000      4.384229000     14.352656000
C       -1.192749000      2.456019000     18.402799000
C       -1.174385000      2.545219000     19.934120000
H       -1.342795000      3.589642000     20.214364000
H       -2.014774000      1.964530000     20.322473000
C        0.137927000      2.086820000     20.545245000
H        0.109166000      2.208609000     21.629807000
H        0.302213000      1.022507000     20.359806000
C        1.263835000      2.917647000     19.955349000
H        2.232150000      2.614206000     20.360626000
H        1.107756000      3.964734000     20.232999000
C        1.335507000      2.837132000     18.425508000
C       -2.442648000      3.215774000     17.938749000
H       -3.320523000      2.810373000     18.444855000
H       -2.615641000      3.128362000     16.864734000
H       -2.353046000      4.272251000     18.193052000
C       -1.342739000      0.982283000     17.974856000
H       -0.618911000      0.333685000     18.463372000
H       -1.224261000      0.862347000     16.896359000
H       -2.338999000      0.620853000     18.237231000
C        1.923891000      1.475137000     18.007127000
H        1.860812000      1.326007000     16.928213000
H        1.424179000      0.639627000     18.492888000
H        2.979935000      1.431535000     18.280618000
C        2.307410000      3.931765000     17.971920000
H        1.891643000      4.915907000     18.191192000
H        2.523187000      3.872608000     16.905403000
H        3.255063000      3.823237000     18.502208000
C        0.453509000      2.542342000     13.043101000
F       -1.726343000      2.139281000     13.902337000
C       -0.581420000      1.672953000     13.356445000
F       -1.598200000     -0.452403000     13.433367000
C       -0.569040000      0.313253000     13.093717000
F        0.557385000     -1.528999000     12.174763000
C        0.520506000     -0.235055000     12.445702000
F        2.595289000      0.082614000     11.403384000
C        1.559284000      0.592351000     12.055021000
F        2.518865000      2.681396000     11.902004000
C        1.498888000      1.943925000     12.342622000
C        1.942216000      4.764709000     13.732259000
F        2.862079000      2.764182000     14.614847000
C        2.979017000      4.071673000     14.338847000
F        5.124675000      3.932820000     15.301193000
C        4.178212000      4.654466000     14.713185000
F        5.523050000      6.577836000     14.828578000
C        4.382673000      6.000908000     14.479702000
F        3.553423000      8.038112000     13.663096000
C        3.377168000      6.740511000     13.884987000
F        1.250696000      6.909289000     13.000786000
C        2.190213000      6.118654000     13.538612000
B        0.479958000      4.145579000     13.391116000
C       -0.913688000      4.698898000     11.315172000
O        0.156446000      4.787825000     11.902720000
O       -1.982353000      4.106366000     11.737763000
H       -1.024772000      5.140858000     10.326183000
H       -1.878934000      3.735478000     12.637627000







































