44

P   -0.0353    -0.1201    -0.3843 
C    1.7992    -0.0985    -0.5908 
C    2.5426     1.0908    -0.4391 
B    1.9144     2.4676    -0.0038 
C    2.4566    -1.2619    -0.9908 
C    3.8226    -1.2650    -1.2413 
C    4.5626    -0.1070    -1.0727 
C    3.9195     1.0520    -0.6630 
H    1.9039    -2.1850    -1.1065 
H    4.3051    -2.1817    -1.5566 
H    5.6299    -0.1061    -1.2530 
H    4.4932     1.9582    -0.5102 
O    0.6646     2.7752    -0.4475 
O    2.7008     3.2748     0.7627 
C   -0.2790     3.5846     0.2268 
H   -0.1758     3.4923     1.3111 
H   -0.1839     4.6313    -0.0653 
H   -1.2687     3.2276    -0.0546 
C    2.4453     4.6434     1.0066 
H    2.0470     5.1375     0.1188 
H    1.7451     4.7708     1.8336 
H    3.3912     5.1112     1.2736 
C   -0.3403    -1.9100    -0.0852 
C   -0.9687    -2.6315    -1.0975 
C    0.0311    -2.5762     1.0831 
C   -1.2110    -3.9930    -0.9558 
H   -1.2697    -2.1202    -2.0046 
C   -0.2159    -3.9320     1.2303 
H    0.5159    -2.0282     1.8823 
C   -0.8354    -4.6439     0.2091 
H   -1.6981    -4.5405    -1.7524 
H    0.0752    -4.4368     2.1427 
H   -1.0277    -5.7028     0.3259 
C   -0.2732     0.5254     1.3243 
C   -1.5857     0.8359     1.6847 
C    0.7415     0.7574     2.2516 
C   -1.8789     1.3672     2.9317 
H   -2.3852     0.6667     0.9715 
C    0.4527     1.3095     3.4946 
H    1.7682     0.5135     2.0074 
C   -0.8564     1.6166     3.8381 
H   -2.9041     1.5984     3.1914 
H    1.2561     1.4919     4.1970 
H   -1.0792     2.0448     4.8069 










 
