50

P    0.5074    -0.3646    -0.0221 
C    2.3432    -0.2129    -0.0337 
C    2.9145     1.0572    -0.2411 
B    2.0794     2.3998    -0.2507 
C    3.1656    -1.3357     0.0387 
C    4.5437    -1.2162    -0.0827 
C    5.1136     0.0278    -0.3013 
C    4.2991     1.1483    -0.3854 
H    2.7322    -2.3175     0.1803 
H    5.1665    -2.0994    -0.0177 
H    6.1861     0.1250    -0.4126 
H    4.7411     2.1202    -0.5709 
O    1.1198     2.4858     0.7081 
O    2.4510     3.3397    -1.1545 
C    0.2993     3.5811     1.0576 
H    0.8997     4.4059     1.4454 
H   -0.2912     3.9216     0.2080 
H   -0.3699     3.2352     1.8455 
C    1.7635     4.5405    -1.4604 
H    0.7420     4.3230    -1.7727 
H    1.7567     5.2242    -0.6103 
H    2.2975     5.0135    -2.2822 
C    0.2644    -2.1642    -0.2726 
C    0.2157    -2.6179    -1.5912 
C    0.1376    -3.0905     0.7612 
C    0.0617    -3.9672    -1.8725 
H    0.3011    -1.9048    -2.4037 
C   -0.0287    -4.4403     0.4802 
H    0.1709    -2.7571     1.7912 
C   -0.0635    -4.8817    -0.8352 
H    0.0302    -4.3034    -2.9009 
H   -0.1278    -5.1489     1.2926 
H   -0.1924    -5.9343    -1.0517 
C    0.0432    -0.1730     1.7372 
C   -1.3115    -0.2713     2.0582 
C    0.9565     0.1054     2.7491 
C   -1.7431    -0.1105     3.3664 
H   -2.0335    -0.4828     1.2761 
C    0.5237     0.2758     4.0580 
H    2.0089     0.1991     2.5116 
C   -0.8240     0.1663     4.3706 
H   -2.7964    -0.1958     3.6010 
H    1.2442     0.4938     4.8361 
H   -1.1583     0.2982     5.3915 
C   -1.9653     2.1559    -0.9380 
H   -2.5125     3.0981    -0.9640 
H   -1.7258     1.9156     0.1034 
H   -2.6106     1.3679    -1.3378 
O   -0.7984     2.3201    -1.7168 
H   -0.2805     1.5101    -1.6021 



















 
