49

P        0.308554000     -0.308764000      0.683196000
C        2.145828000     -0.401002000      0.578772000
C        2.887043000      0.669300000      0.032046000
B        2.260180000      1.943058000     -0.660265000
C        2.819585000     -1.494169000      1.122760000
C        4.207065000     -1.550803000      1.128622000
C        4.943077000     -0.505785000      0.597283000
C        4.280470000      0.587756000      0.059768000
H        2.263803000     -2.316517000      1.552594000
H        4.705028000     -2.413421000      1.553220000
H        6.025119000     -0.538450000      0.603736000
H        4.849295000      1.411705000     -0.351841000
O        0.929216000      1.892353000     -0.949567000
O        3.123113000      2.929038000     -1.022560000
C        0.195629000      2.704257000     -1.837030000
H       -0.238264000      3.557672000     -1.310640000
H        0.815415000      3.063732000     -2.659233000
H       -0.611446000      2.092646000     -2.242270000
C        2.782371000      4.268510000     -1.309515000
H        2.717082000      4.425755000     -2.387756000
H        1.843189000      4.553303000     -0.836615000
H        3.572288000      4.903100000     -0.910220000
C       -0.261270000     -0.776836000     -0.991695000
C       -1.627564000     -0.674739000     -1.252337000
C        0.590193000     -1.195097000     -2.010006000
C       -2.135726000     -0.996460000     -2.502701000
H       -2.298564000     -0.339905000     -0.468500000
C        0.083207000     -1.507186000     -3.265146000
H        1.654633000     -1.271965000     -1.824121000
C       -1.278984000     -1.411295000     -3.513971000
H       -3.199096000     -0.916707000     -2.689009000
H        0.756034000     -1.828907000     -4.049925000
H       -1.671671000     -1.656490000     -4.492302000
C       -0.121722000     -1.805224000      1.647919000
C       -0.389308000     -3.050568000      1.081785000
C       -0.180163000     -1.669960000      3.035206000
C       -0.700438000     -4.137310000      1.887964000
H       -0.353276000     -3.172729000      0.006125000
C       -0.479153000     -2.757922000      3.842106000
H        0.012638000     -0.702140000      3.484871000
C       -0.741845000     -3.994599000      3.268163000
H       -0.908350000     -5.098782000      1.436012000
H       -0.516111000     -2.638283000      4.917212000
H       -0.983570000     -4.843468000      3.894697000
C        0.218059000      3.650998000      1.650708000
O        1.392929000      3.492981000      1.459766000
O       -0.725635000      2.738990000      1.512993000
H       -0.215922000      4.608033000      1.970594000
H       -0.337532000      1.870193000      1.240477000








































