47

P    0.1163     0.0430     0.1782 
C    1.9511    -0.0077    -0.0291 
C    2.6551     1.1855    -0.2949 
B    1.9881     2.6177    -0.2604 
C    2.6366    -1.2221    -0.0311 
C    4.0015    -1.2712    -0.2820 
C    4.6987    -0.1055    -0.5549 
C    4.0222     1.1055    -0.5651 
H    2.1055    -2.1458     0.1580 
H    4.5135    -2.2252    -0.2706 
H    5.7608    -0.1392    -0.7617 
H    4.5584     2.0203    -0.7872 
O    0.9767     2.7701     0.6336 
O    2.5631     3.5660    -1.0467 
C   -0.0609     3.7275     0.6846 
H    0.2523     4.6091     1.2454 
H   -0.3822     4.0135    -0.3162 
H   -0.8963     3.2608     1.2084 
C    2.1039     4.8974    -1.1631 
H    1.1792     4.9289    -1.7412 
H    1.9394     5.3512    -0.1846 
H    2.8719     5.4643    -1.6863 
C   -0.3348    -1.7278     0.0195 
C   -0.5698    -2.2064    -1.2699 
C   -0.4516    -2.6091     1.0930 
C   -0.8935    -3.5374    -1.4865 
H   -0.4984    -1.5265    -2.1120 
C   -0.7878    -3.9394     0.8786 
H   -0.2772    -2.2560     2.1020 
C   -1.0051    -4.4072    -0.4098 
H   -1.0684    -3.8934    -2.4936 
H   -0.8769    -4.6125     1.7218 
H   -1.2663    -5.4446    -0.5745 
C   -0.1281     0.3161     1.9696 
C   -1.4417     0.4240     2.4268 
C    0.9158     0.4428     2.8806 
C   -1.7077     0.6380     3.7711 
H   -2.2627     0.3352     1.7233 
C    0.6499     0.6662     4.2254 
H    1.9406     0.3740     2.5374 
C   -0.6598     0.7613     4.6743 
H   -2.7322     0.7147     4.1123 
H    1.4707     0.7657     4.9243 
H   -0.8640     0.9346     5.7229 
O    0.0100     2.4509    -2.2366 
H   -0.2842     1.7333    -1.6532 
H    0.7482     2.0848    -2.7338 




























 
