80

P   -2.0794     0.7651    -0.3175 
C   -1.1971     1.2948    -1.8734 
H   -0.1401     1.4906    -1.7261 
C   -2.0662     2.5747    -1.9186 
H   -1.5721     3.3549    -1.3556 
H   -2.2104     2.9673    -2.9242 
B   -3.4599     2.0960    -1.1829 
C   -4.5530     1.5276    -2.2364 
C   -5.4688     2.4362    -2.7606 
C   -4.6425     0.2520    -2.7757 
C   -6.4190     2.1123    -3.7131 
C   -5.5784    -0.1164    -3.7285 
C   -6.4785     0.8192    -4.1997 
C   -4.0962     3.0161    -0.0084 
C   -3.5603     4.2167     0.4493 
C   -5.2026     2.5817     0.7107 
C   -4.0345     4.8923     1.5611 
C   -5.7081     3.2214     1.8282 
C   -5.1107     4.3885     2.2650 
C   -1.5049     1.7540     1.1381 
C   -2.3456     1.6420     2.2741 
C   -0.4696     2.7113     1.1638 
C   -2.2042     2.5265     3.3320 
C   -0.3874     3.5848     2.2506 
C   -1.2550     3.5384     3.3260 
H   -2.8735     2.4315     4.1804 
H    0.3966     4.3331     2.2448 
C   -1.9174    -1.0039     0.1516 
C   -0.6282    -1.5083     0.4473 
C   -3.0231    -1.8656     0.2250 
C   -0.4743    -2.8513     0.7463 
C   -2.8096    -3.2117     0.5294 
C   -1.5543    -3.7291     0.7802 
H    0.5198    -3.2272     0.9629 
H   -3.6727    -3.8672     0.5750 
F   -5.4469     3.7137    -2.3623 
F   -7.2656     3.0291    -4.1684 
F   -7.3784     0.4861    -5.1148 
F   -5.6063    -1.3584    -4.2008 
F   -3.7885    -0.7111    -2.4105 
F   -2.5300     4.8068    -0.1673 
F   -3.4535     6.0184     1.9657 
F   -5.5620     5.0145     3.3439 
F   -6.7442     2.7166     2.4911 
F   -5.8224     1.4440     0.3603 
C   -4.4679    -1.4645     0.0780 
H   -4.6143    -0.4403    -0.2403 
H   -4.9609    -2.1151    -0.6442 
H   -4.9734    -1.5924     1.0383 
C   -1.3462    -5.1851     1.0827 
H   -2.2954    -5.7011     1.2166 
H   -0.8077    -5.6722     0.2675 
H   -0.7522    -5.3136     1.9885 
C    0.6041    -0.6452     0.4638 
H    0.7544    -0.1322    -0.4868 
H    0.5421     0.1149     1.2438 
H    1.4868    -1.2538     0.6511 
C    0.6256     2.8749     0.1362 
H    1.0928     1.9267    -0.1177 
H    0.2831     3.3450    -0.7846 
H    1.4030     3.5145     0.5489 
C   -3.4067     0.5847     2.4180 
H   -4.0139     0.4766     1.5241 
H   -2.9620    -0.3907     2.6267 
H   -4.0778     0.8387     3.2374 
C   -1.1860     4.5384     4.4432 
H   -1.2574     4.0476     5.4142 
H   -0.2589     5.1083     4.4088 
H   -2.0171     5.2433     4.3680 
C   -1.3113     0.3413    -3.0484 
C   -1.9586     0.6915    -4.2296 
C   -0.7007    -0.9119    -2.9849 
C   -2.0218    -0.1926    -5.2993 
H   -2.4439     1.6517    -4.3274 
C   -0.7628    -1.7963    -4.0490 
H   -0.1788    -1.2139    -2.0873 
C   -1.4320    -1.4430    -5.2127 
H   -2.5412     0.1019    -6.2023 
H   -0.2890    -2.7660    -3.9664 
H   -1.4889    -2.1340    -6.0433 





 
