86

P    -1.6937     0.4710    -0.5441 
C    -1.2933     0.9793    -2.3226 
H    -0.2967     1.4099    -2.3602 
C    -2.3216     2.0027    -2.9121 
H    -1.8068     2.9526    -3.0579 
H    -2.5404     1.6576    -3.9234 
B    -3.7434     2.3540    -2.1769 
C    -4.8117     3.0056    -3.2350 
C    -5.4126     4.2562    -3.1388 
C    -5.1787     2.2883    -4.3708 
C    -6.2683     4.7727    -4.1015 
C    -6.0335     2.7589    -5.3503 
C    -6.5793     4.0225    -5.2180 
C    -3.5385     3.2318    -0.8005 
C    -2.8410     4.4342    -0.8697 
C    -3.9141     2.8799     0.4858 
C    -2.4989     5.1973     0.2275 
C    -3.6013     3.6141     1.6198 
C    -2.8774     4.7794     1.4920 
C    -1.0027     1.5900     0.7524 
C    -1.3688     1.2202     2.0702 
C    -0.2507     2.7645     0.5701 
C    -0.9616     1.9992     3.1447 
C     0.1294     3.5113     1.6862 
C    -0.2103     3.1543     2.9792 
H    -1.2635     1.7035     4.1436 
H     0.7001     4.4198     1.5257 
C    -0.8174    -1.1240    -0.2854 
C     0.5720    -1.2261    -0.1114 
C    -1.6000    -2.2959    -0.2765 
C     1.1483    -2.4814     0.0583 
C    -0.9788    -3.5280    -0.1090 
C     0.3944    -3.6447     0.0567 
H     2.2233    -2.5480     0.1871 
H    -1.5883    -4.4251    -0.1066 
F    -5.2131     5.0484    -2.0827 
F    -6.8014     5.9794    -3.9506 
F    -7.4003     4.4989    -6.1417 
F    -6.3405     2.0110    -6.4045 
F    -4.7216     1.0396    -4.5533 
F    -2.4597     4.9105    -2.0630 
F    -1.7869     6.3114     0.0889 
F    -2.5336     5.4832     2.5620 
F    -3.9745     3.1875     2.8225 
F    -4.5999     1.7432     0.7264 
C    -3.1016    -2.2860    -0.4241 
H    -3.5724    -1.6725     0.3467 
H    -3.4053    -1.8953    -1.3964 
H    -3.4910    -3.2991    -0.3364 
C     1.0416    -4.9933     0.1974 
H     0.4174    -5.6705     0.7802 
H     1.1922    -5.4479    -0.7843 
H     2.0143    -4.9165     0.6816 
C     1.4897    -0.0340    -0.1128 
H     1.2136     0.6827    -0.8842 
H     1.4595     0.4947     0.8420 
H     2.5159    -0.3500    -0.2958 
C     0.2035     3.3079    -0.7607 
H     1.0671     2.7616    -1.1461 
H    -0.5760     3.2828    -1.5139 
H     0.5060     4.3482    -0.6460 
C    -2.2199     0.0149     2.3807 
H    -3.1411     0.0235     1.7964 
H    -1.6986    -0.9189     2.1629 
H    -2.4922     0.0151     3.4344 
C     0.1775     3.9976     4.1598 
H     0.6703     3.3962     4.9250 
H     0.8511     4.8014     3.8666 
H    -0.7079     4.4474     4.6130 
C    -1.2208    -0.3111    -3.1156 
C    -2.3595    -0.9401    -3.6110 
C     0.0155    -0.9174    -3.3374 
C    -2.2679    -2.1498    -4.2880 
H    -3.3277    -0.4775    -3.4746 
C     0.1117    -2.1230    -4.0126 
H     0.9158    -0.4402    -2.9671 
C    -1.0339    -2.7492    -4.4868 
H    -3.1670    -2.6198    -4.6662 
H     1.0832    -2.5737    -4.1706 
H    -0.9622    -3.6901    -5.0165 
O    -4.3633     0.9515    -1.7769 
H    -3.7392     0.5501    -1.0876 
C    -5.7636     0.7538    -1.5296 
H    -6.1990     1.6596    -1.1143 
H    -6.2310     0.5024    -2.4785 
H    -5.8698    -0.0672    -0.8253 























 
