82

P   -1.9701     0.0648    -0.1028 
C   -1.5229     0.7362    -1.7624 
H   -0.4325     0.8062    -1.7848 
C   -2.1861     2.1123    -2.0264 
H   -1.4848     2.8718    -1.6944 
H   -2.2103     2.2130    -3.1153 
B   -3.6898     2.3930    -1.3777 
C   -4.8493     2.6420    -2.5068 
C   -4.7935     3.7026    -3.3988 
C   -5.9678     1.8320    -2.6368 
C   -5.7630     3.9612    -4.3516 
C   -6.9641     2.0488    -3.5766 
C   -6.8614     3.1236    -4.4393 
C   -3.7393     3.6383    -0.3028 
C   -2.9450     4.7772    -0.2977 
C   -4.6431     3.5749     0.7519 
C   -3.0078     5.7594     0.6799 
C   -4.7473     4.5339     1.7438 
C   -3.9166     5.6374     1.7130 
C   -2.0571     1.2084     1.2929 
C   -3.0803     0.9343     2.2330 
C   -1.2663     2.3575     1.4314 
C   -3.2845     1.8210     3.2748 
C   -1.5179     3.2134     2.5017 
C   -2.5206     2.9761     3.4228 
H   -4.0846     1.6228     3.9791 
H   -0.9148     4.1108     2.5920 
C   -1.1223    -1.4918     0.2809 
C    0.1901    -1.5039     0.7857 
C   -1.8036    -2.7080     0.0550 
C    0.7926    -2.7201     1.0751 
C   -1.1507    -3.8964     0.3655 
C    0.1377    -3.9282     0.8792 
H    1.8054    -2.7215     1.4615 
H   -1.6697    -4.8315     0.1903 
F   -3.7513     4.5418    -3.3539 
F   -5.6558     4.9964    -5.1812 
F   -7.8053     3.3478    -5.3477 
F   -8.0136     1.2324    -3.6627 
F   -6.1290     0.7549    -1.8514 
F   -2.0265     4.9848    -1.2549 
F   -2.1899     6.8112     0.6424 
F   -3.9802     6.5578     2.6727 
F   -5.6126     4.3858     2.7491 
F   -5.4737     2.5291     0.8684 
C   -3.1907    -2.8152    -0.5273 
H   -3.2491    -2.3733    -1.5228 
H   -3.4679    -3.8634    -0.6151 
H   -3.9433    -2.3312     0.0980 
C    0.7968    -5.2296     1.2338 
H    0.4091    -6.0467     0.6270 
H    1.8762    -5.1749     1.0971 
H    0.6080    -5.4750     2.2812 
C    0.9817    -0.2461     1.0076 
H    1.1029     0.3146     0.0795 
H    0.4996     0.4079     1.7347 
H    1.9771    -0.4856     1.3759 
C   -0.1426     2.7771     0.5214 
H    0.0103     2.1238    -0.3272 
H   -0.3361     3.7802     0.1380 
H    0.7914     2.8145     1.0861 
C   -3.9934    -0.2576     2.1283 
H   -4.6877    -0.1360     1.2910 
H   -3.4401    -1.1900     1.9963 
H   -4.5878    -0.3498     3.0345 
C   -2.7999     3.9392     4.5390 
H   -2.5674     3.4867     5.5050 
H   -2.2100     4.8483     4.4336 
H   -3.8554     4.2150     4.5512 
C   -1.9110    -0.3762    -2.7186 
C   -3.1667    -0.3928    -3.3214 
C   -1.0249    -1.4207    -2.9762 
C   -3.5309    -1.4394    -4.1565 
H   -3.8598     0.4160    -3.1373 
C   -1.3896    -2.4690    -3.8082 
H   -0.0433    -1.4169    -2.5146 
C   -2.6471    -2.4829    -4.3972 
H   -4.5105    -1.4374    -4.6168 
H   -0.6899    -3.2722    -3.9992 
H   -2.9332    -3.2990    -5.0478 
H   -4.0583     1.4287    -0.7523 
H   -3.2740    -0.3507    -0.2863 


















