77

P    2.8873     3.6840     3.8850 
C    2.3650     2.0147     4.4754 
H    3.3112     1.4955     4.6430 
H    1.8962     2.0961     5.4525 
C    1.5042     1.1795     3.5622 
C    0.8304     3.0921     2.0722 
H    0.2170     3.7024     2.7356 
H    0.3474     3.1671     1.0951 
C    4.5402     3.8207     4.7101 
C    4.6104     3.7253     6.1212 
C    5.8472     3.8262     6.7440 
H    5.8857     3.7633     7.8262 
C    7.0306     4.0002     6.0374 
C    6.9423     4.0900     4.6620 
H    7.8438     4.2390     4.0771 
C    5.7258     4.0117     3.9865 
C    3.4355     3.4885     7.0401 
H    3.2353     2.4197     7.1390 
H    2.5240     3.9805     6.7129 
H    3.6724     3.8638     8.0342 
C    8.3498     4.0726     6.7513 
H    9.1325     4.4538     6.0973 
H    8.6524     3.0816     7.0957 
H    8.2857     4.7181     7.6276 
C    5.7952     4.1842     2.4973 
H    6.2413     5.1503     2.2507 
H    4.8306     4.1326     2.0165 
H    6.4236     3.4097     2.0538 
C    1.9011     5.0548     4.6180 
C    0.6229     4.9108     5.1969 
C   -0.0708     6.0515     5.5909 
H   -1.0563     5.9284     6.0253 
C    0.4361     7.3303     5.4337 
C    1.7020     7.4523     4.8857 
H    2.1275     8.4410     4.7516 
C    2.4453     6.3512     4.4781 
C   -0.0784     3.6022     5.4743 
H   -1.1342     3.7944     5.6549 
H    0.3180     3.1331     6.3793 
H   -0.0119     2.8812     4.6646 
C   -0.3670     8.5435     5.8029 
H    0.2642     9.3139     6.2455 
H   -1.1591     8.2952     6.5079 
H   -0.8319     8.9703     4.9114 
C    3.8087     6.6522     3.9056 
H    3.8269     7.6763     3.5339 
H    4.0783     6.0035     3.0768 
H    4.5843     6.5515     4.6678 
B    2.3433     3.6963     1.8766 
C    2.3752     5.2267     1.2912 
F    4.3492     4.9133    -0.0091 
C    3.3714     5.7110     0.4418 
F    4.4358     7.4003    -0.8100 
C    3.4450     7.0172    -0.0114 
F    2.5351     9.1860    -0.0466 
C    2.4785     7.9283     0.3681 
F    0.4898     8.3498     1.5363 
C    1.4430     7.4971     1.1719 
F    0.3277     5.8705     2.3283 
C    1.4001     6.1772     1.5926 
C    3.1358     2.6224     0.9356 
C    2.7819     2.5472    -0.4074 
C    4.0533     1.6665     1.3314 
C    3.2983     1.6186    -1.2920 
C    4.6020     0.7167     0.4850 
C    4.2206     0.6905    -0.8414 
F    4.4778     1.6166     2.6076 
F    5.4833    -0.1688     0.9419 
F    4.7288    -0.2110    -1.6712 
F    2.9206     1.6080    -2.5656 
F    1.8978     3.4168    -0.9125 
C    1.4735    -0.2731     3.9431 
H    2.4752    -0.7075     3.8778 
H    1.1358    -0.4031     4.9753 
H    0.8094    -0.8376     3.2905 
C    0.8241     1.6614     2.5251 
H    0.2347     0.9537     1.9493 









 
