82

P        3.160563000      3.154947000      5.144810000
C        2.356425000      1.531739000      4.854539000
H        2.646318000      0.885243000      5.684118000
H        1.279224000      1.647096000      4.869973000
C        2.809404000      0.966866000      3.518789000
C        1.484124000      2.703464000      2.270571000
H        1.167148000      3.037187000      3.260778000
H        0.561399000      2.417339000      1.754843000
C        4.503496000      2.938041000      6.329092000
C        4.240079000      2.887158000      7.708246000
C        5.303376000      2.724907000      8.583678000
H        5.103952000      2.686585000      9.648579000
C        6.611766000      2.600211000      8.130136000
C        6.840203000      2.618403000      6.761132000
H        7.852291000      2.497956000      6.392561000
C        5.813285000      2.782411000      5.837091000
C        2.843352000      2.969090000      8.259957000
H        2.220967000      2.163560000      7.862503000
H        2.360867000      3.916041000      8.013979000
H        2.855179000      2.864373000      9.342865000
C        7.749662000      2.462983000      9.099989000
H        8.591665000      1.939708000      8.649341000
H        7.442063000      1.923831000      9.995307000
H        8.099826000      3.449401000      9.411840000
C        6.156567000      2.791368000      4.371375000
H        6.023820000      3.776421000      3.917641000
H        5.542137000      2.098569000      3.792373000
H        7.196868000      2.504882000      4.232393000
C        2.122748000      4.603868000      5.452032000
C        0.763438000      4.575436000      5.819481000
C        0.082514000      5.780804000      5.923188000
H       -0.967393000      5.760811000      6.192707000
C        0.689654000      7.004137000      5.669196000
C        2.028788000      7.006536000      5.311062000
H        2.521785000      7.949866000      5.106336000
C        2.767547000      5.835170000      5.199544000
C       -0.034409000      3.325236000      6.081713000
H       -0.917826000      3.573611000      6.666677000
H        0.522294000      2.569221000      6.630669000
H       -0.382744000      2.889646000      5.141787000
C       -0.087048000      8.282373000      5.788458000
H       -0.263060000      8.522079000      6.839298000
H       -1.059126000      8.192697000      5.302865000
H        0.448614000      9.114774000      5.334977000
C        4.216374000      5.947792000      4.808752000
H        4.506669000      6.995038000      4.763214000
H        4.406483000      5.515314000      3.823675000
H        4.873009000      5.453526000      5.527922000
B        2.128486000      3.980454000      1.453683000
C        1.320307000      5.385329000      1.812087000
F        3.046391000      6.669739000      0.830460000
C        1.881892000      6.616005000      1.493995000
F        1.910933000      8.978445000      1.450498000
C        1.306357000      7.841304000      1.783718000
F       -0.500467000      9.037729000      2.706929000
C        0.079353000      7.876224000      2.417993000
F       -1.711240000      6.697152000      3.371681000
C       -0.532099000      6.684206000      2.747837000
F       -0.613586000      4.390969000      2.789313000
C        0.089292000      5.482864000      2.446520000
C        2.110779000      3.638505000     -0.161180000
C        1.081244000      4.037497000     -1.005478000
C        3.054290000      2.818759000     -0.769409000
C        1.001703000      3.689814000     -2.344533000
C        3.018324000      2.447385000     -2.102944000
C        1.981085000      2.890004000     -2.901456000
F        4.087255000      2.328002000     -0.062076000
F        3.963036000      1.665763000     -2.617962000
F        1.921421000      2.543692000     -4.180863000
F       -0.010908000      4.110346000     -3.096095000
F        0.070155000      4.786227000     -0.546672000
C        3.726582000     -0.219439000      3.584994000
H        4.618285000     -0.003472000      4.182141000
H        3.231694000     -1.072724000      4.057462000
H        4.048016000     -0.517395000      2.588310000
C        2.372926000      1.511849000      2.381834000
H        2.704389000      1.054599000      1.454188000
C        4.589591000      4.596987000      1.341417000
O        3.531205000      4.164247000      1.986740000
O        5.639991000      4.812771000      1.891571000
H        4.452909000      4.752438000      0.264642000
H        3.765372000      3.459992000      3.930037000

















































