79

P    2.9458     3.6615     4.5334 
C    2.7011     1.9054     4.1629 
H    3.6001     1.6774     3.5746 
H    2.8155     1.3723     5.1094 
C    1.4694     1.4271     3.4210 
C    1.2106     3.4074     1.8283 
H    1.2019     4.1952     2.5889 
H    0.4215     3.7016     1.1346 
C    4.4804     3.8382     5.4694 
C    4.5199     3.6193     6.8584 
C    5.7241     3.7904     7.5260 
H    5.7545     3.6264     8.5971 
C    6.8875     4.1603     6.8625 
C    6.8270     4.3565     5.4902 
H    7.7269     4.6389     4.9564 
C    5.6489     4.2019     4.7681 
C    3.3163     3.1880     7.6516 
H    2.9393     2.2244     7.3044 
H    2.5019     3.9099     7.5863 
H    3.5803     3.0706     8.7005 
C    8.1829     4.3072     7.6067 
H    8.8524     5.0008     7.1003 
H    8.6912     3.3427     7.6721 
H    8.0154     4.6620     8.6229 
C    5.6915     4.4371     3.2802 
H    5.1173     5.3231     2.9939 
H    5.2916     3.5972     2.7088 
H    6.7177     4.5966     2.9560 
C    1.5797     4.6253     5.2131 
C    0.4498     4.0848     5.8462 
C   -0.5424     4.9574     6.2841 
H   -1.4125     4.5399     6.7779 
C   -0.4584     6.3289     6.1082 
C    0.6714     6.8403     5.4805 
H    0.7584     7.9108     5.3348 
C    1.6934     6.0228     5.0260 
C    0.2061     2.6176     6.0723 
H   -0.4074     2.4791     6.9616 
H    1.1174     2.0443     6.2081 
H   -0.3245     2.1919     5.2196 
C   -1.5597     7.2432     6.5594 
H   -1.1563     8.1251     7.0570 
H   -2.2404     6.7382     7.2425 
H   -2.1379     7.5880     5.6997 
C    2.8646     6.6682     4.3331 
H    2.7858     7.7509     4.3977 
H    2.8858     6.4073     3.2712 
H    3.8194     6.3748     4.7741 
B    2.6576     3.3183     1.0440 
C    3.2934     4.7624     0.6001 
F    5.3210     3.6663     0.0926 
C    4.6179     4.8036     0.1775 
F    6.5721     5.9370    -0.5215 
C    5.2953     5.9661    -0.1434 
F    5.2657     8.3127    -0.3449 
C    4.6360     7.1799    -0.0501 
F    2.6719     8.3590     0.4603 
C    3.3164     7.1970     0.3576 
F    1.3982     6.1176     1.0519 
C    2.6778     6.0026     0.6624 
C    2.5177     2.3119    -0.2285 
C    1.8729     2.6844    -1.3975 
C    2.9855     1.0075    -0.2075 
C    1.7080     1.8444    -2.4854 
C    2.8414     0.1294    -1.2697 
C    2.1990     0.5528    -2.4185 
F    3.6144     0.5229     0.8756 
F    3.3104    -1.1164    -1.1990 
F    2.0497    -0.2762    -3.4479 
F    1.0813     2.2560    -3.5863 
F    1.3632     3.9204    -1.5072 
C    1.0621     0.0379     3.8287 
H    0.8004    -0.0131     4.8909 
H    0.2063    -0.3029     3.2487 
H    1.8832    -0.6668     3.6666 
C    0.8595     2.0835     2.4330 
H    0.0370     1.5463     1.9666 
H    3.2229     4.2703     3.3210 
H    3.4910     2.8248     1.7747 




















 
