36

B    4.3253     1.3414     5.5001 
C    2.4237     0.3836     5.7882 
C    1.1079    -0.0278     5.9128 
H    0.8698    -1.0023     6.3141 
C    0.1220     0.8660     5.5242 
C    0.4572     2.1264     5.0339 
H   -0.3082     2.8309     4.7432 
C    1.7886     2.4753     4.9223 
C    3.7956    -0.1128     6.1060 
H    3.9367    -0.2939     7.1709 
H    4.0731    -1.0092     5.5538 
C    5.0950     1.2281     4.0892 
C    6.0755     0.2708     3.8797 
C    6.7609     0.1369     2.6844 
C    6.4734     0.9953     1.6378 
C    5.5137     1.9774     1.8065 
C    4.8581     2.0734     3.0207 
C    4.9307     2.4081     6.5591 
C    6.1151     3.1148     6.3919 
C    6.6105     4.0041     7.3343 
C    5.9101     4.2209     8.5050 
C    4.7234     3.5422     8.7197 
C    4.2698     2.6615     7.7564 
F    6.4212    -0.5601     4.8692 
F    7.6914    -0.7984     2.5331 
F    7.1163     0.8813     0.4842 
F    5.2386     2.8146     0.8121 
F    3.9635     3.0683     3.1476 
F    6.8579     2.9682     5.2919 
F    7.7503     4.6504     7.1200 
F    6.3685     5.0687     9.4138 
F    4.0397     3.7406     9.8414 
F    3.1160     2.0306     8.0268 
N    2.7170     1.5929     5.2849 
H   -0.9209     0.5893     5.6116 
H    2.1255     3.4330     4.5537 





















 
