39

B    4.7296     0.3183     5.0852 
C    2.3918     0.4690     5.9238 
C    1.5966     0.2589     7.0487 
H    1.6550    -0.7025     7.5381 
C    0.7651     1.2535     7.5162 
C    0.7076     2.4798     6.8553 
H    0.0660     3.2798     7.1921 
C    1.4978     2.6619     5.7537 
C    3.3556    -0.5124     5.3864 
H    3.4630    -1.3392     6.0835 
H    2.9854    -0.9133     4.4374 
C    5.9173    -0.4975     4.3508 
C    5.9316    -1.8595     4.1050 
C    6.9821    -2.5050     3.4730 
C    8.0790    -1.7718     3.0608 
C    8.1132    -0.4070     3.2896 
C    7.0433     0.1956     3.9264 
C    5.2726     1.0099     6.4690 
C    5.7986     0.1796     7.4501 
C    6.2877     0.6330     8.6619 
C    6.2497     1.9889     8.9385 
C    5.7206     2.8562     8.0017 
C    5.2448     2.3551     6.7996 
F    4.9045    -2.6328     4.4838 
F    6.9452    -3.8165     3.2597 
F    9.0927    -2.3719     2.4525 
F    9.1674     0.3013     2.9007 
F    7.1270     1.5115     4.1410 
F    5.8401    -1.1430     7.2393 
F    6.7818    -0.2110     9.5599 
F    6.7060     2.4489    10.0949 
F    5.6646     4.1575     8.2638 
F    4.7264     3.2633     5.9551 
N    2.3164     1.6804     5.3248 
H    0.1562     1.0814     8.3944 
H    1.5315     3.5683     5.1675 
O    2.7813     2.8921     3.4140 
O    4.2838     1.3831     4.0748 
C    3.2016     2.0411     4.1288 



































 
