39

B    5.0180     0.9877     4.8365 
C    2.6577     0.5463     5.7789 
C    1.9209    -0.0030     6.8286 
H    2.1682    -0.9982     7.1693 
C    0.9032     0.7233     7.4123 
C    0.6070     2.0106     6.9632 
H   -0.1813     2.5994     7.4068 
C    1.3624     2.5267     5.9410 
C    3.7994    -0.1013     5.0880 
H    4.1041    -0.9784     5.6530 
H    3.4657    -0.4423     4.1016 
C    6.3481     0.3682     4.1089 
C    6.6127    -0.9632     3.8389 
C    7.7686    -1.3971     3.2079 
C    8.7209    -0.4743     2.8182 
C    8.5042     0.8700     3.0660 
C    7.3359     1.2506     3.6987 
C    5.4604     1.6040     6.3102 
C    6.0718     0.7723     7.2395 
C    6.4564     1.1775     8.5051 
C    6.2216     2.4847     8.8953 
C    5.6061     3.3516     8.0132 
C    5.2410     2.8975     6.7549 
F    5.7410    -1.9199     4.1861 
F    7.9699    -2.6901     2.9717 
F    9.8314    -0.8722     2.2106 
F    9.4119     1.7680     2.6956 
F    7.1729     2.5700     3.9202 
F    6.3072    -0.5093     6.9245 
F    7.0379     0.3319     9.3494 
F    6.5764     2.8976    10.1054 
F    5.3653     4.6075     8.3801 
F    4.6358     3.8076     5.9659 
N    2.3366     1.7944     5.3902 
H    0.3338     0.2944     8.2269 
H    1.2287     3.5228     5.5437 
O    4.4001     2.0184     3.9491 
H    4.9787     2.7721     3.8044 
H    3.0285     2.1795     4.6677 






































 
