41

B        5.663528000      0.549466000      5.485548000
C        2.971192000      0.717649000      5.620451000
C        2.317444000      0.154119000      6.720397000
H        2.656316000     -0.806444000      7.083045000
C        1.281544000      0.829718000      7.324592000
C        0.870503000      2.074684000      6.839113000
H        0.064020000      2.624925000      7.298921000
C        1.529089000      2.594242000      5.757657000
C        4.129386000      0.110813000      4.952826000
H        4.058016000     -0.965222000      5.087867000
H        4.104623000      0.327528000      3.884403000
C        6.654655000     -0.504018000      4.708996000
C        6.512046000     -1.872918000      4.910692000
C        7.256495000     -2.838795000      4.264100000
C        8.210684000     -2.447427000      3.341330000
C        8.388525000     -1.102348000      3.092386000
C        7.616645000     -0.164874000      3.766719000
C        5.786458000      0.541266000      7.128760000
C        6.583061000     -0.283944000      7.914406000
C        6.622251000     -0.219789000      9.300927000
C        5.859153000      0.716390000      9.969752000
C        5.079703000      1.590028000      9.235057000
C        5.075850000      1.490395000      7.856486000
F        5.612318000     -2.325203000      5.801731000
F        7.070702000     -4.130208000      4.518245000
F        8.939121000     -3.353729000      2.703475000
F        9.294614000     -0.711653000      2.201483000
F        7.862646000      1.108097000      3.433277000
F        7.403053000     -1.186767000      7.373643000
F        7.400851000     -1.045196000      9.991089000
F        5.884092000      0.787751000     11.293454000
F        4.349381000      2.514812000      9.854170000
F        4.327952000      2.409226000      7.216271000
N        2.529867000      1.908436000      5.186622000
H        0.783185000      0.397048000      8.182517000
H        1.298046000      3.554249000      5.319248000
C        5.624980000      2.810441000      4.268407000
O        6.075554000      1.950697000      5.109549000
O        4.533268000      2.831664000      3.718257000
H        6.351818000      3.608348000      4.071991000
H        3.130099000      2.341194000      4.450903000























































