40

B    4.6986     0.7310     4.9927 
C    2.1828     1.0106     5.4296 
C    1.0069     0.6402     6.0974 
H    0.8673    -0.4097     6.3117 
C    0.0755     1.5758     6.4720 
C    0.3027     2.9252     6.1875 
H   -0.4044     3.6946     6.4587 
C    1.4658     3.2588     5.5560 
C    3.2162     0.0303     5.0164 
H    3.1017    -0.8690     5.6163 
H    3.0229    -0.2367     3.9713 
C    5.8037    -0.2679     4.3428 
C    6.0474    -1.4821     4.9691 
C    6.9626    -2.4149     4.5187 
C    7.6921    -2.1379     3.3763 
C    7.4908    -0.9396     2.7186 
C    6.5621    -0.0302     3.2056 
C    5.2385     1.2303     6.4717 
C    6.3888     2.0095     6.5280 
C    6.9526     2.4635     7.7074 
C    6.3545     2.1349     8.9121 
C    5.2091     1.3626     8.9111 
C    4.6809     0.9318     7.7036 
F    5.3715    -1.7931     6.0881 
F    7.1487    -3.5635     5.1638 
F    8.5772    -3.0150     2.9180 
F    8.1927    -0.6680     1.6216 
F    6.4397     1.1018     2.5129 
F    7.0095     2.3524     5.3959 
F    8.0539     3.2071     7.7007 
F    6.8743     2.5611    10.0556 
F    4.6240     1.0454    10.0630 
F    3.5633     0.1890     7.7924 
N    2.3677     2.3243     5.1964 
H   -0.8272     1.2722     6.9856 
H    1.7337     4.2798     5.3169 
C    3.6826     2.8684     4.6076 
O    4.4725     1.9151     4.1112 
H    3.3710     3.5648     3.8260 
H    4.1182     3.4199     5.4536 


































 
