83

C    5.2803    10.3978     5.7710 
H    4.3211    10.5484     6.2574 
C    6.3550    11.1579     6.6101 
H    7.2946    11.0848     6.0388 
C    6.5148    10.1937     7.7945 
H    7.4225    10.3676     8.3663 
H    5.6697    10.3153     8.4784 
C    6.5128     8.7947     7.1712 
H    7.5342     8.5021     6.9246 
H    6.1205     8.0414     7.8536 
C    5.6734     8.9101     5.8819 
H    4.7942     8.2667     5.9187 
H    6.2614     8.5979     5.0194 
C    6.3130    10.2383     2.9972 
C    7.5663    10.8188     2.7127 
C    8.4506    10.1537     1.8708 
H    9.4114    10.6091     1.6582 
C    8.1385     8.9327     1.2892 
C    6.8979     8.3802     1.5686 
H    6.6305     7.4285     1.1223 
C    5.9795     9.0045     2.4077 
C    7.9962    12.1585     3.2544 
H    8.9899    12.4104     2.8886 
H    8.0299    12.1792     4.3424 
H    7.3122    12.9507     2.9422 
C    9.1261     8.2217     0.4083 
H    9.8120     7.6223     1.0110 
H    9.7246     8.9303    -0.1637 
H    8.6234     7.5511    -0.2876 
C    4.6594     8.3133     2.6206 
H    3.8852     8.7385     1.9783 
H    4.3108     8.4044     3.6466 
H    4.7517     7.2537     2.3860 
C    3.5209    11.0861     3.2505 
C    2.3432    10.4917     3.7426 
C    1.1800    10.5583     2.9817 
H    0.2829    10.0887     3.3703 
C    1.1251    11.1915     1.7495 
C    2.2866    11.7861     1.2843 
H    2.2741    12.2969     0.3278 
C    3.4733    11.7590     2.0092 
C    2.2365     9.7712     5.0603 
H    2.2172    10.4765     5.8926 
H    3.0586     9.0799     5.2250 
H    1.3106     9.2000     5.0940 
C   -0.1570    11.2603     0.9693 
H   -0.7344    10.3425     1.0799 
H    0.0343    11.4226    -0.0908 
H   -0.7786    12.0847     1.3257 
C    4.6604    12.4704     1.4103 
H    5.4369    11.7741     1.0889 
H    5.1177    13.1525     2.1304 
H    4.3483    13.0520     0.5449 
C    4.8862    13.2787     7.8166 
F    5.9757    14.4520     9.5834 
C    4.8595    13.9997     9.0089 
F    3.7496    15.0343    10.8116 
C    3.6924    14.3665     9.6657 
F    1.3426    14.4103     9.7266 
C    2.4642    14.0629     9.1140 
F    1.2635    13.1803     7.2964 
C    2.4285    13.4288     7.8869 
F    3.4892    12.5843     6.0305 
C    3.6191    13.0818     7.2756 
C    7.6550    13.2070     7.6723 
F    7.0574    12.1844     9.7200 
C    7.9698    12.8161     8.9714 
F    9.4125    12.6466    10.8269 
C    9.1874    13.0483     9.5809 
F   11.3584    13.9458     9.4467 
C   10.1816    13.7110     8.8826 
F   10.8666    14.7635     6.9029 
C    9.9264    14.1233     7.5921 
F    8.5569    14.3130     5.7571 
C    8.6888    13.8650     7.0179 
P    5.1592    11.1727     4.0777 
B    6.2261    12.7612     6.9879 
C    5.7851    14.8565     5.4723 
H    6.1913    15.2229     4.5319 
H    4.7016    14.9743     5.4999 
H    6.2404    15.3942     6.3010 
H    5.7463    12.8635     4.8606 
O    6.1366    13.4809     5.6029 





 
