80

 C                  5.97479000   10.45675200    5.90993300
 H                  4.94321500   10.56715400    6.22908400
 C                  6.77800500   11.54732900    6.64375700
 H                  7.78246700   11.57055500    6.21533600
 C                  6.96080000   10.96295700    8.06478600
 H                  8.00602800   11.05847800    8.36002700
 H                  6.37225500   11.48707600    8.81371100
 C                  6.54585300    9.47364400    7.97478900
 H                  7.21845300    8.81311400    8.52027800
 H                  5.54744200    9.34442100    8.39649100
 C                  6.49562400    9.13591600    6.47449400
 H                  5.85622400    8.27976700    6.25608100
 H                  7.49243200    8.91310900    6.09111500
 C                  6.61946200    9.52249000    3.02658700
 C                  8.00181000    9.26899400    3.14241700
 C                  8.59090700    8.32291900    2.30799000
 H                  9.65451400    8.14029400    2.41213600
 C                  7.87068400    7.62315200    1.36005100
 C                  6.50909400    7.88265200    1.26271400
 H                  5.92577500    7.33663300    0.53030700
 C                  5.85845300    8.80910300    2.06416200
 C                  8.94395400    9.96204100    4.09009300
 H                  9.64616800    9.23618600    4.50017000
 H                  8.45786500   10.45184600    4.92402500
 H                  9.50782900   10.72713600    3.55582200
 C                  8.52207500    6.61758000    0.45637900
 H                  8.00786100    5.65716900    0.51152100
 H                  9.56701200    6.46549100    0.72014300
 H                  8.47731200    6.95267000   -0.58139000
 C                  4.37604800    8.95693400    1.82097900
 H                  4.11208100    9.95037500    1.46141300
 H                  3.78681000    8.76513600    2.71534000
 H                  4.06942200    8.23693200    1.06539700
 C                  4.20548200   11.28767000    3.68015100
 C                  3.10421700   10.69837200    4.32882200
 C                  1.83609200   11.21994000    4.10423200
 H                  0.99311400   10.76556100    4.61455400
 C                  1.61340400   12.28280700    3.24145700
 C                  2.70178800   12.78353600    2.53999000
 H                  2.54527700   13.57566600    1.81653700
 C                  3.99208200   12.30556300    2.72695000
 C                  3.16870600    9.45645100    5.18587700
 H                  3.08939900    9.69258000    6.25076500
 H                  4.07669800    8.87478100    5.03182500
 H                  2.32375700    8.81414300    4.93691100
 C                  0.24569100   12.87246100    3.06511800
 H                 -0.52731000   12.19998900    3.43355400
 H                  0.04793500   13.09653100    2.01688600
 H                  0.17007600   13.80899500    3.62177100
 C                  5.07006900   12.88174400    1.84843200
 H                  5.82358700   12.14643200    1.56642400
 H                  5.58202600   13.71271500    2.33746000
 H                  4.61749700   13.26666000    0.93630700
 C                  4.59334900   13.25893400    6.38230300
 F                  4.21627100   11.66610000    8.09870100
 C                  3.73559500   12.56830100    7.22486100
 F                  1.60104200   11.99241700    8.05386100
 C                  2.36090200   12.72715300    7.24370200
 F                  0.45442200   13.78032600    6.35343400
 C                  1.77537500   13.63751300    6.38771000
 F                  2.02948700   15.23577100    4.69178800
 C                  2.58158400   14.36816500    5.53829700
 F                  4.64747500   14.93658300    4.70557900
 C                  3.95307300   14.17368400    5.55347600
 C                  7.05016000   14.15852000    7.19370800
 F                  9.05943100   13.57212400    6.08222500
 C                  8.41625300   14.32230800    6.98734800
 F                 10.49762000   15.34040900    7.43987100
 C                  9.19532500   15.22733100    7.68520900
 F                  9.33953400   16.88784600    9.34372100
 C                  8.60970000   16.01650300    8.65886000
 F                  6.68817000   16.62489800    9.85728900
 C                  7.25998800   15.87955300    8.91596300
 F                  5.21898500   14.88365900    8.51796900
 C                  6.51562800   14.96169500    8.19019300
 P                  5.90524400   10.79584300    4.10765900
 B                  6.22601800   13.04728900    6.32817200
 O                  6.65513400   13.28948600    4.84687900
 O                  7.76952000   12.47332400    3.09862900
 C                  6.95996100   12.39490400    3.97776400