80

 C                  5.87595700   10.50410500    5.92464000
 H                  4.94967500   10.71752200    6.45090400
 C                  6.95407500   11.48947000    6.44364100
 H                  7.85328200   11.33356900    5.83154400
 C                  7.25344900   10.84291100    7.80085200
 H                  8.17871700   11.21570900    8.23661200
 H                  6.44611600   11.05612000    8.50355600
 C                  7.33021900    9.33884500    7.50208700
 H                  8.34685600    9.07447600    7.20965800
 H                  7.07040600    8.72417900    8.36313300
 C                  6.36912400    9.09449000    6.31124900
 H                  5.53937100    8.44394600    6.59135500
 H                  6.89408900    8.61655800    5.48214400
 C                  6.40167800    9.73406800    3.02856300
 C                  7.58909200   10.18635400    2.41992700
 C                  8.23965000    9.33251900    1.53198200
 H                  9.15431800    9.67624700    1.06359400
 C                  7.76158100    8.06743000    1.23123700
 C                  6.59213800    7.64279600    1.85229300
 H                  6.20702700    6.65240200    1.63663300
 C                  5.90372800    8.44628400    2.74713700
 C                  8.19463500   11.54475900    2.65803000
 H                  9.16165700   11.60588100    2.16343400
 H                  8.33485000   11.78142600    3.71193000
 H                  7.56487100   12.33983800    2.25147100
 C                  8.47591000    7.17084300    0.26165900
 H                  7.85532600    6.98538900   -0.61684600
 H                  8.69310200    6.20383700    0.71727500
 H                  9.41335900    7.61287700   -0.07057300
 C                  4.66630600    7.89487700    3.39832600
 H                  3.79429100    8.52473800    3.22047900
 H                  4.80631900    7.80414800    4.47674000
 H                  4.44864800    6.90072700    3.01334900
 C                  3.79547300   11.11364000    3.73766600
 C                  2.70660300   10.65440300    4.49571400
 C                  1.42603600   11.07363800    4.14006200
 H                  0.58864200   10.73027800    4.73751200
 C                  1.19100000   11.92347200    3.07264400
 C                  2.28095600   12.33207000    2.31143100
 H                  2.11869900   12.98875500    1.46439600
 C                  3.57618200   11.95085600    2.61934600
 C                  2.79871500    9.73896700    5.68939700
 H                  2.80598100   10.31187100    6.62047000
 H                  3.67718200    9.10336900    5.67899800
 H                  1.92161800    9.09322400    5.71713800
 C                 -0.18830600   12.41935000    2.75361600
 H                 -0.94536500   11.88049300    3.32048300
 H                 -0.40610100   12.31508200    1.69026400
 H                 -0.26663000   13.47873400    3.00612500
 C                  4.69683800   12.48326500    1.76517200
 H                  5.37878900   11.69461800    1.44199000
 H                  5.27690800   13.23638900    2.30547500
 H                  4.29069400   12.96018300    0.87585100
 C                  5.02853000   13.45789300    6.11846600
 F                  4.46391400   12.24067200    8.05906500
 C                  4.07112000   12.94374500    6.98287400
 F                  1.84904100   12.51922200    7.67002100
 C                  2.70665600   13.08952800    6.82388100
 F                  0.91644700   13.94328900    5.55287000
 C                  2.22516900   13.81197500    5.74661000
 F                  2.68326800   15.08745100    3.83395500
 C                  3.12640600   14.38233200    4.87394800
 F                  5.26849700   14.82445400    4.17464100
 C                  4.48825900   14.20379300    5.08021900
 C                  7.31522700   13.93706800    7.58544100
 F                  5.36144700   15.04432300    8.36701400
 C                  6.67623700   14.79615100    8.46604300
 F                  6.64898500   16.27978400   10.30597400
 C                  7.32293200   15.46649000    9.49544700
 F                  9.31732000   15.92452700   10.65483600
 C                  8.67971000   15.29181400    9.67603000
 F                 10.67740700   14.26720700    8.98859200
 C                  9.36848500   14.44806300    8.82259300
 F                  9.41240700   12.98903300    7.03545000
 C                  8.68143000   13.80070100    7.81222400
 P                  5.53376800   10.83789300    4.17015000
 B                  6.66538000   13.12438800    6.29673100
 H                  6.11990000   12.08329600    3.95151100
 H                  7.34109500   14.43833300    4.88720500
 O                  7.38056700   13.49654100    5.06339200

