81

C        5.386274000     10.219521000      6.181799000
H        4.542887000     10.505114000      6.798631000
C        6.601921000     11.056527000      6.671627000
H        7.412917000     10.911459000      5.938518000
C        7.020550000     10.262780000      7.912452000
H        8.031598000     10.521066000      8.228723000
H        6.353114000     10.477413000      8.744784000
C        6.899147000      8.794501000      7.490775000
H        7.828241000      8.465881000      7.023107000
H        6.707799000      8.130993000      8.333172000
C        5.756708000      8.743021000      6.447533000
H        4.894656000      8.183234000      6.814075000
H        6.106386000      8.246388000      5.544245000
C        6.056259000      9.828477000      3.348384000
C        7.223198000     10.378784000      2.786416000
C        7.985089000      9.590218000      1.931295000
H        8.884033000     10.017344000      1.501913000
C        7.634102000      8.287546000      1.608843000
C        6.471298000      7.772080000      2.162667000
H        6.174060000      6.757618000      1.921176000
C        5.668493000      8.511347000      3.023610000
C        7.670542000     11.793701000      3.016219000
H        8.679335000     11.935041000      2.634115000
H        7.657697000     12.088270000      4.061656000
H        7.024008000     12.501271000      2.489208000
C        8.501575000      7.452289000      0.712160000
H        9.264202000      6.935864000      1.299141000
H        9.014558000      8.068888000     -0.024891000
H        7.917439000      6.696251000      0.189034000
C        4.406444000      7.840383000      3.511672000
H        3.565065000      8.079044000      2.856787000
H        4.119294000      8.128703000      4.520732000
H        4.543614000      6.760010000      3.504743000
C        3.277169000     10.612798000      3.846671000
C        2.165464000     10.289553000      4.652060000
C        0.905883000     10.239049000      4.069440000
H        0.057958000      9.983238000      4.694464000
C        0.693841000     10.507276000      2.724227000
C        1.794878000     10.839454000      1.954387000
H        1.656477000     11.061797000      0.902392000
C        3.083057000     10.902334000      2.479601000
C        2.239515000      9.985470000      6.125847000
H        2.537473000     10.860691000      6.706566000
H        2.939696000      9.179900000      6.346975000
H        1.260058000      9.678093000      6.485249000
C       -0.688625000     10.471504000      2.140140000
H       -1.262733000      9.637309000      2.542934000
H       -0.657950000     10.381100000      1.055497000
H       -1.227039000     11.389351000      2.385300000
C        4.176859000     11.249804000      1.496406000
H        4.649233000     10.347344000      1.101994000
H        4.968382000     11.863919000      1.917924000
H        3.746468000     11.797084000      0.659753000
C        5.119530000     13.325832000      7.576648000
F        4.295591000     11.393378000      8.697975000
C        4.209045000     12.709155000      8.418017000
F        2.314286000     12.689100000      9.828322000
C        3.158171000     13.360651000      9.046801000
F        1.990249000     15.361673000      9.447293000
C        2.988641000     14.716567000      8.856610000
F        3.736821000     16.702144000      7.859210000
C        3.879137000     15.392937000      8.042669000
F        5.732853000     15.429595000      6.679066000
C        4.908024000     14.696818000      7.431158000
C        7.781341000     13.360877000      7.282711000
F        7.140134000     12.847986000      9.499506000
C        8.032012000     13.380180000      8.648611000
F        9.345150000     13.906237000     10.541087000
C        9.170025000     13.919123000      9.221940000
F       11.242659000     14.993596000      8.927084000
C       10.137996000     14.472545000      8.404524000
F       10.875409000     14.988830000      6.239762000
C        9.944591000     14.468047000      7.037048000
F        8.704545000     13.943858000      5.170058000
C        8.787734000     13.916845000      6.505743000
P        4.984061000     10.755787000      4.486435000
B        6.399468000     12.680627000      6.716764000
C        5.108949000     12.619758000      4.651758000
O        6.191671000     13.114713000      5.299144000
H        4.158812000     12.797009000      5.190416000
H        5.000485000     13.061065000      3.65882700














