82

C        6.074684000     10.444829000      5.811867000
H        5.117340000     10.511109000      6.314891000
C        7.032045000     11.495431000      6.478123000
H        7.853619000     11.705447000      5.782873000
C        7.623719000     10.615205000      7.598036000
H        8.520275000     11.042803000      8.036599000
H        6.884495000     10.491594000      8.395331000
C        7.904429000      9.276266000      6.928276000
H        8.788681000      9.368739000      6.292724000
H        8.085646000      8.464451000      7.632295000
C        6.664484000      9.028333000      6.062114000
H        5.934003000      8.424553000      6.604230000
H        6.910542000      8.494415000      5.143318000
C        6.454623000      9.695499000      2.845675000
C        7.672353000     10.105526000      2.263205000
C        8.251286000      9.302194000      1.286668000
H        9.187894000      9.621847000      0.844898000
C        7.676583000      8.112732000      0.867203000
C        6.492591000      7.714854000      1.472398000
H        6.037374000      6.776401000      1.177394000
C        5.871587000      8.473417000      2.455391000
C        8.391197000     11.372263000      2.637958000
H        9.377686000     11.385766000      2.179479000
H        8.521211000     11.474019000      3.714959000
H        7.854004000     12.262577000      2.308695000
C        8.304637000      7.286259000     -0.217045000
H        9.378435000      7.458783000     -0.273070000
H        7.874604000      7.546310000     -1.186760000
H        8.129980000      6.223418000     -0.053313000
C        4.625038000      7.913679000      3.078934000
H        3.784197000      8.602010000      3.010031000
H        4.792724000      7.682024000      4.131992000
H        4.343391000      6.986928000      2.583339000
C        3.928726000     11.117977000      3.755960000
C        2.879057000     10.515242000      4.464905000
C        1.576710000     10.945100000      4.215852000
H        0.768300000     10.489589000      4.778347000
C        1.288514000     11.948435000      3.307334000
C        2.343365000     12.504645000      2.588576000
H        2.135426000     13.281665000      1.861800000
C        3.656075000     12.112542000      2.786456000
C        3.026575000      9.413421000      5.484424000
H        2.777407000      9.774719000      6.484125000
H        4.017149000      8.977916000      5.525210000
H        2.326844000      8.609796000      5.248773000
C       -0.110681000     12.453744000      3.113911000
H       -0.833759000     11.832021000      3.638663000
H       -0.373767000     12.482490000      2.055893000
H       -0.192549000     13.470307000      3.504042000
C        4.735819000     12.777101000      1.971127000
H        5.411842000     12.047059000      1.519013000
H        5.335908000     13.457979000      2.580872000
H        4.286906000     13.355347000      1.166409000
C        4.785726000     13.098232000      6.671318000
F        4.428942000     11.359268000      8.226123000
C        3.920840000     12.264473000      7.370480000
F        1.782127000     11.446588000      7.954796000
C        2.546167000     12.291337000      7.261831000
F        0.638889000     13.195425000      6.220513000
C        1.958034000     13.181412000      6.382086000
F        2.211164000     14.866339000      4.776893000
C        2.763540000     14.020945000      5.645161000
F        4.818793000     14.842996000      5.046362000
C        4.143380000     13.971903000      5.804346000
C        6.815096000     13.327795000      8.519767000
F        4.659219000     13.683308000      9.471776000
C        5.993588000     13.645702000      9.590669000
F        5.615435000     14.268151000     11.836228000
C        6.465744000     13.981871000     10.853362000
F        8.291944000     14.357512000     12.286943000
C        7.823174000     14.036228000     11.086898000
F       10.005062000     13.827005000     10.243643000
C        8.690418000     13.762995000     10.044381000
F        9.083945000     13.205064000      7.844765000
C        8.174624000     13.431010000      8.806577000
P        5.683703000     10.803969000      4.067549000
B        6.409966000     12.990324000      6.943228000
C        7.455362000     14.392776000      5.067788000
O        7.114126000     14.168130000      6.286725000
O        7.231469000     13.705633000      4.090480000
H        8.008334000     15.337516000      4.971623000
H        6.276086000     12.042635000      3.841325000
