80

F    5.8636     8.3655     3.9020 
F    3.8696     7.9122     2.2160 
F    1.5320     9.2813     2.4490 
F    1.2466    11.1059     4.4331 
F    3.1952    11.5746     6.1317 
F    6.0678    10.0137     9.1115 
F    5.7958    12.0265    10.7903 
F    5.3935    14.5548     9.8856 
F    5.2659    15.0149     7.2115 
F    5.5222    12.9913     5.4885 
F   13.7133     6.2223     7.0816 
F   14.0072     5.7869     9.7242 
F   15.2276     7.6462    11.2726 
F   16.1648     9.9322    10.1656 
F   15.8981    10.3516     7.5162 
F   17.3778     8.1052     6.3452 
F   19.3818     8.2069     4.6396 
F   18.9380     8.7500     2.0297 
F   16.4218     9.1917     1.1424 
F   14.3813     9.0993     2.8111 
N    9.5369     9.0939     6.6988 
C    9.0785    10.4227     7.0867 
H    8.2800    10.3025     7.8155 
H    9.8795    10.9862     7.5838 
C    8.5066    11.2400     5.9286 
H    9.2917    11.5042     5.2171 
H    8.1789    12.1903     6.3575 
C    7.3422    10.5669     5.1922 
H    7.7125     9.6700     4.6886 
H    7.0445    11.2290     4.3738 
C    4.6733    10.0404     5.0774 
C    4.7456     9.1019     4.0545 
C    3.7226     8.8284     3.1669 
C    2.5305     9.5193     3.2857 
C    2.3921    10.4497     4.2971 
C    3.4448    10.6838     5.1702 
C    5.7726    11.3997     7.2018 
C    5.8425    11.2230     8.5732 
C    5.7153    12.2629     9.4847 
C    5.5153    13.5501     9.0298 
C    5.4524    13.7812     7.6652 
C    5.5873    12.7164     6.7979 
C   10.5914     9.0288     5.6986 
H   10.5623     9.9526     5.1238 
H   10.3863     8.2311     4.9778 
C   11.9853     8.8446     6.2951 
H   11.9930     7.9347     6.8964 
H   12.1858     9.6718     6.9826 
C   13.0609     8.7852     5.2138 
H   13.0259     9.6980     4.6077 
H   12.8281     7.9913     4.4894 
C   14.7910     8.3040     7.2225 
C   14.3188     7.1537     7.8287 
C   14.4610     6.9080     9.1826 
C   15.0867     7.8564     9.9744 
C   15.5666     9.0259     9.4059 
C   15.4166     9.2234     8.0460 
C   15.7538     8.6200     4.6875 
C   17.0777     8.3904     5.0835 
C   18.1493     8.4318     4.2111 
C   17.9269     8.7082     2.8733 
C   16.6376     8.9346     2.4236 
C   15.5893     8.8837     3.3225 
C    9.3210     7.9915     7.5159 
C    8.7201     8.0913     8.7836 
H    8.5068     9.0533     9.2215 
C    8.3841     6.9566     9.5087 
H    7.9138     7.0814    10.4758 
C    8.6467     5.6865     9.0208 
H    8.3836     4.8069     9.5913 
C    9.2886     5.5731     7.7930 
H    9.5327     4.5952     7.3975 
C    9.6278     6.6941     7.0564 
H   10.1229     6.5560     6.1059 
B    5.9808    10.2845     6.0365 
B   14.5434     8.5717     5.6843 
C    6.7208     7.8975     6.5423 
O    6.0309     8.8651     6.8180 
H    7.4256     7.9244     5.7141 
H    6.6021     6.9887     7.1356 















