78

F    7.0862     8.0772     2.4396 
F    5.5703     8.5975     0.3125 
F    3.5452    10.3937     0.4715 
F    3.0578    11.6729     2.8154 
F    4.5681    11.1649     4.9654 
F    5.3556     6.8378     5.3735 
F    3.8175     6.0278     7.3977 
F    3.4270     7.6362     9.5462 
F    4.5915    10.0862     9.6216 
F    6.1334    10.9114     7.6225 
F   13.6638     7.0488     8.1655 
F   13.9395     8.0190    10.6629 
F   14.7748    10.5696    11.0382 
F   15.3455    12.1389     8.9082 
F   15.1012    11.1577     6.4110 
F   16.9837     8.9265     6.4190 
F   19.0054     8.5686     4.7688 
F   18.5789     7.7202     2.2395 
F   16.0649     7.2242     1.3768 
F   14.0070     7.5656     2.9928 
N    9.0759     8.1474     6.6899 
C    8.9605     9.4666     7.4183 
H    8.0713     9.3907     8.0355 
H    9.8253     9.5368     8.0792 
C    8.8545    10.6546     6.4722 
H    9.8449    10.8736     6.0668 
H    8.6184    11.4957     7.1262 
C    7.8143    10.5751     5.3224 
H    8.3602    10.6519     4.3764 
H    7.2068    11.4804     5.3680 
C    5.8812     9.5834     3.8104 
C    6.0938     8.9660     2.5883 
C    5.3250     9.2198     1.4637 
C    4.2918    10.1356     1.5398 
C    4.0459    10.7850     2.7365 
C    4.8410    10.4999     3.8328 
C    5.8221     8.9137     6.3905 
C    5.1828     7.6790     6.3973 
C    4.3821     7.2310     7.4345 
C    4.1834     8.0465     8.5352 
C    4.7809     9.2941     8.5704 
C    5.5719     9.6986     7.5051 
C   10.2058     8.1378     5.7098 
H    9.9095     8.8250     4.9165 
H   10.2279     7.1397     5.2735 
C   11.5551     8.5248     6.2978 
H   11.7030     8.0306     7.2575 
H   11.5779     9.5976     6.4974 
C   12.6748     8.1622     5.3221 
H   12.4839     8.6440     4.3567 
H   12.6412     7.0899     5.0831 
C   14.3666     9.0791     7.2126 
C   14.0768     8.3141     8.3286 
C   14.2140     8.7890     9.6204 
C   14.6434    10.0919     9.8135 
C   14.9357    10.8942     8.7211 
C   14.7997    10.3731     7.4478 
C   15.3650     8.2928     4.7979 
C   16.6913     8.5223     5.1885 
C   17.7723     8.3378     4.3477 
C   17.5589     7.9014     3.0511 
C   16.2698     7.6494     2.6130 
C   15.2122     7.8414     3.4808 
C    9.0021     6.9849     7.5982 
C    7.8602     6.8549     8.3793 
H    7.0662     7.5873     8.3230 
C    7.7260     5.7645     9.2221 
H    6.8276     5.6650     9.8166 
C    8.7285     4.8073     9.2940 
H    8.6228     3.9572     9.9542 
C    9.8608     4.9421     8.5087 
H   10.6460     4.1995     8.5511 
C   10.0025     6.0268     7.6518 
H   10.8900     6.0939     7.0407 
B    6.7959     9.3010     5.1262 
B   14.1475     8.5064     5.7566 
H    7.4147     8.2703     4.8556 
H    8.2272     8.1192     6.0667 














