81

F        5.232029000     11.355233000      1.966239000
F        2.962273000     12.545462000      1.335911000
F        0.992136000     12.839072000      3.181153000
F        1.366930000     11.888457000      5.697009000
F        3.601143000     10.683691000      6.368336000
F        5.165407000      7.321578000      4.829715000
F        4.995694000      5.975196000      7.085420000
F        5.526008000      7.163098000      9.462037000
F        6.281301000      9.779316000      9.506910000
F        6.475341000     11.158678000      7.274808000
F       13.065819000      6.634571000      8.170741000
F       12.762892000      7.413263000     10.730966000
F       13.801132000      9.773844000     11.558130000
F       15.152541000     11.347795000      9.817582000
F       15.467492000     10.561794000      7.259463000
F       16.920563000      7.944413000      7.516509000
F       19.229464000      7.344792000      6.392448000
F       19.378007000      6.863826000      3.737967000
F       17.154395000      6.989607000      2.205334000
F       14.818718000      7.583579000      3.286845000
N        9.270417000      9.016764000      5.808204000
C        9.180503000     10.515090000      5.806290000
H        8.520508000     10.809637000      6.616085000
H       10.178087000     10.894537000      6.026067000
C        8.652427000     11.041583000      4.468748000
H        8.914938000     10.343723000      3.667998000
H        9.204845000     11.957714000      4.248409000
C        7.149134000     11.357021000      4.428931000
H        6.978767000     11.854787000      3.470957000
H        6.938800000     12.114226000      5.187595000
C        4.553624000     10.920917000      4.199687000
C        4.306736000     11.440799000      2.930659000
C        3.131927000     12.076345000      2.569526000
C        2.126008000     12.230005000      3.505317000
C        2.321993000     11.744930000      4.782011000
C        3.514203000     11.110682000      5.100142000
C        5.925786000      9.304513000      5.899349000
C        5.499942000      7.980678000      5.946673000
C        5.360725000      7.254524000      7.118326000
C        5.629795000      7.853644000      8.333023000
C        6.025631000      9.175584000      8.349035000
C        6.152062000      9.859499000      7.152068000
C       10.532170000      8.535723000      5.133193000
H       10.658430000      9.155721000      4.245413000
H       10.329687000      7.517809000      4.800612000
C       11.750961000      8.581012000      6.034567000
H       11.588353000      7.906622000      6.873844000
H       11.877793000      9.582126000      6.456340000
C       13.014785000      8.176739000      5.278003000
H       13.169855000      8.844394000      4.421367000
H       12.885618000      7.189954000      4.816049000
C       14.263276000      8.583031000      7.633879000
C       13.580105000      7.808400000      8.555200000
C       13.418107000      8.185284000      9.876523000
C       13.951066000      9.391114000     10.301705000
C       14.642522000     10.195646000      9.409455000
C       14.790651000      9.774903000      8.100701000
C       15.730456000      7.815767000      5.464451000
C       16.915936000      7.730706000      6.206108000
C       18.139054000      7.414494000      5.645768000
C       18.219758000      7.165692000      4.286045000
C       17.078510000      7.231088000      3.504616000
C       15.871380000      7.545819000      4.098073000
C        9.082175000      8.351338000      7.100028000
C        8.621588000      7.045139000      7.073062000
H        8.355945000      6.586392000      6.126972000
C        8.476942000      6.356107000      8.268690000
H        8.094502000      5.343922000      8.258465000
C        8.791053000      6.972770000      9.471677000
H        8.662586000      6.438492000     10.403079000
C        9.255900000      8.280705000      9.480876000
H        9.493379000      8.766648000     10.417575000
C        9.409268000      8.978320000      8.290696000
H        9.769908000      9.998210000      8.302207000
B        6.003763000     10.192100000      4.506621000
B       14.350965000      8.171852000      6.109574000
C        6.976236000      8.282674000      3.147969000
O        6.169579000      9.252082000      3.299383000
O        7.872290000      7.920756000      3.911160000
H        6.815625000      7.733207000      2.212725000
H        8.504036000      8.667006000      5.158422000














