42

P    0.1524     0.1638     0.0985 
C    1.9739     0.0008     0.3052 
C    2.7110     1.1958     0.3124 
B    2.0216     2.5717    -0.0447 
C    2.6330    -1.2112     0.5162 
C    4.0000    -1.2466     0.7482 
C    4.7245    -0.0633     0.7951 
C    4.0791     1.1458     0.5851 
H    2.0803    -2.1424     0.5029 
H    4.4973    -2.1959     0.9028 
H    5.7895    -0.0855     0.9886 
H    4.6509     2.0664     0.6192 
C   -0.2995    -1.3848    -0.8185 
H    0.1442    -2.2535    -0.3267 
C   -0.4583    -0.1704     1.8327 
H   -1.5460    -0.0899     1.7339 
C   -1.8174    -1.5538    -0.8267 
H   -2.0998    -2.4126    -1.4394 
H   -2.2176    -1.7128     0.1757 
H   -2.3016    -0.6690    -1.2475 
C    0.2498    -1.2902    -2.2407 
H    1.3342    -1.1723    -2.2459 
H   -0.0001    -2.1900    -2.8072 
H   -0.1828    -0.4320    -2.7604 
C   -0.1183    -1.5290     2.4328 
H   -0.5926    -1.6342     3.4118 
H   -0.4596    -2.3580     1.8106 
H    0.9587    -1.6283     2.5784 
C    0.0179     0.9601     2.7445 
H    1.1045     0.9364     2.8540 
H   -0.2502     1.9403     2.3474 
H   -0.4233     0.8571     3.7382 
O    1.8906     3.4873     0.9554 
O    1.6739     2.7760    -1.3474 
C    1.5934     4.8541     0.7462 
H    2.0363     5.2198    -0.1817 
H    0.5156     5.0213     0.7188 
H    2.0127     5.4127     1.5812 
C    0.5538     3.5304    -1.7643 
H   -0.2161     3.5561    -0.9906 
H    0.8389     4.5496    -2.0309 
H    0.1371     3.0405    -2.6433 












 
