47

P        0.495128000     -0.249389000     -0.197051000
C        2.310961000     -0.284556000      0.061177000
C        2.966697000      0.934452000      0.306933000
B        2.300645000      2.368106000      0.214906000
C        3.039025000     -1.474453000      0.106760000
C        4.396752000     -1.475002000      0.389122000
C        5.042163000     -0.278961000      0.664817000
C        4.325314000      0.907127000      0.635892000
H        2.546818000     -2.421217000     -0.075755000
H        4.943642000     -2.409180000      0.408138000
H        6.098405000     -0.270704000      0.902068000
H        4.828912000      1.838882000      0.865755000
C        0.109355000     -1.859785000     -1.025142000
H        0.551850000     -2.688745000     -0.468906000
C       -0.135180000     -0.488923000      1.542886000
H       -1.223355000     -0.467713000      1.423782000
C       -1.406891000     -2.052635000     -1.052001000
H       -1.661655000     -2.949111000     -1.620963000
H       -1.823925000     -2.163082000     -0.050214000
H       -1.896747000     -1.201177000     -1.531457000
C        0.679266000     -1.843790000     -2.442693000
H        1.760758000     -1.702591000     -2.445073000
H        0.455691000     -2.783442000     -2.952330000
H        0.233797000     -1.031965000     -3.022419000
C        0.272916000     -1.797390000      2.208431000
H       -0.138792000     -1.847428000      3.219303000
H       -0.085460000     -2.671486000      1.662625000
H        1.359867000     -1.865808000      2.290226000
C        0.264989000      0.714229000      2.397512000
H        1.344510000      0.733736000      2.561446000
H       -0.033239000      1.655189000      1.929866000
H       -0.219210000      0.652887000      3.374372000
O        2.539341000      3.197926000      1.265620000
O        1.644071000      2.702507000     -0.932238000
C        1.785744000      4.355669000      1.586109000
H        2.149130000      5.227235000      1.039494000
H        0.726290000      4.203144000      1.374985000
H        1.912673000      4.535471000      2.652084000
C        1.424044000      4.025199000     -1.385772000
H        0.598038000      4.498319000     -0.854959000
H        2.322547000      4.633592000     -1.264948000
H        1.178212000      3.964693000     -2.444219000
C       -1.675081000      3.040589000     -0.750462000
O       -1.270610000      3.186718000      0.372280000
O       -1.205454000      2.188823000     -1.638556000
H       -2.503370000      3.625967000     -1.171882000
H       -0.493348000      1.632008000     -1.230130000











































