45

P    0.0103    -0.0094     0.1898 
C    1.8400     0.1278     0.1456 
C    2.4344     1.3360    -0.2729 
B    1.6622     2.7292    -0.5866 
C    2.6385    -0.9783     0.4531 
C    4.0195    -0.9097     0.3745 
C    4.6181     0.2749    -0.0285 
C    3.8316     1.3703    -0.3491 
H    2.1812    -1.9134     0.7514 
H    4.6206    -1.7762     0.6197 
H    5.6966     0.3419    -0.1009 
H    4.3008     2.2879    -0.6799 
C   -0.3247    -1.6979    -0.4912 
H    0.2678    -2.4366     0.0524 
C   -0.4512    -0.1341     1.9852 
H   -1.5429    -0.2115     1.9648 
C   -1.8043    -2.0390    -0.3232 
H   -2.0250    -2.9968    -0.7985 
H   -2.0929    -2.1131     0.7261 
H   -2.4330    -1.2798    -0.7950 
C    0.0830    -1.7289    -1.9631 
H    1.1388    -1.4891    -2.0936 
H   -0.0978    -2.7197    -2.3846 
H   -0.5018    -1.0075    -2.5389 
C    0.1175    -1.3419     2.7227 
H   -0.2742    -1.3680     3.7422 
H   -0.1415    -2.2880     2.2449 
H    1.2044    -1.2741     2.7897 
C   -0.0759     1.1618     2.7007 
H    1.0093     1.2863     2.7132 
H   -0.4999     2.0358     2.2075 
H   -0.4250     1.1297     3.7349 
O    0.9396     3.3039     0.5223 
O    2.4910     3.6142    -1.3119 
C    1.7377     3.8157     1.5588 
H    2.3082     4.6920     1.2317 
H    1.0897     4.1069     2.3864 
H    2.4521     3.0670     1.9209 
C    1.9872     4.8745    -1.6639 
H    1.3365     4.8094    -2.5448 
H    1.4203     5.3336    -0.8468 
H    2.8231     5.5270    -1.9164 
O    0.3521     2.3996    -1.5620 
H   -0.1088     1.6299    -1.0982 
H   -0.2348     3.1625    -1.4462 





























 
