86

C        1.013488000     -2.504620000      1.020300000
C        2.283499000     -1.958999000      0.821774000
C        2.473901000     -0.599521000      0.579429000
C        1.317489000      0.168484000      0.590346000
C        0.035227000     -0.342091000      0.811030000
C       -0.119752000     -1.707717000      1.018996000
H        0.921727000     -3.567399000      1.198715000
H        3.144003000     -2.612143000      0.880490000
H       -1.098402000     -2.136701000      1.191368000
C       -0.012025000      1.905394000      0.540545000
C       -0.425606000      3.233696000      0.531640000
C       -1.797034000      3.412699000      0.743499000
C       -2.670478000      2.343666000      0.933695000
C       -2.204245000      1.036766000      0.968644000
C       -0.844765000      0.811574000      0.783641000
H       -2.193609000      4.421382000      0.758585000
H       -3.724219000      2.538708000      1.079424000
H       -2.884140000      0.213906000      1.149168000
O        1.285150000      1.513798000      0.393590000
P        4.104375000      0.215848000      0.481133000
B        0.583786000      4.394696000      0.337676000
C        1.840303000      4.188369000     -0.576669000
C        3.107036000      4.638766000     -0.226559000
C        1.747196000      3.519128000     -1.792892000
C        4.222919000      4.419373000     -1.014335000
C        2.826841000      3.333727000     -2.631683000
C        4.076053000      3.780614000     -2.232470000
C        0.340875000      5.780986000      1.034519000
C        0.681036000      6.983445000      0.417184000
C       -0.198157000      5.891124000      2.315582000
C        0.491718000      8.216285000      1.011637000
C       -0.383521000      7.108218000      2.947670000
C       -0.041096000      8.275616000      2.288415000
C        4.727846000      0.439336000     -1.218984000
C        6.081468000      0.831065000     -1.304558000
C        3.987997000      0.239736000     -2.398032000
C        6.674190000      0.938017000     -2.557815000
C        4.631007000      0.365999000     -3.624787000
C        5.974067000      0.696725000     -3.729184000
H        7.714956000      1.238122000     -2.614867000
H        4.053176000      0.217921000     -4.530123000
C        5.215016000     -1.035567000      1.221250000
C        5.697447000     -2.130571000      0.480493000
C        5.611465000     -0.874556000      2.564869000
C        6.612757000     -2.997039000      1.072441000
C        6.531909000     -1.766831000      3.103236000
C        7.060814000     -2.821430000      2.372122000
H        6.977732000     -3.840031000      0.495772000
H        6.836789000     -1.635951000      4.135769000
C        6.952546000      1.137847000     -0.108196000
H        7.403614000      0.227483000      0.293547000
H        7.758743000      1.803693000     -0.412979000
H        6.395335000      1.621418000      0.692182000
C        6.624444000      0.871543000     -5.071035000
H        7.692354000      0.660926000     -5.023611000
H        6.172793000      0.219342000     -5.817867000
H        6.503420000      1.902141000     -5.413251000
C        2.516790000     -0.088374000     -2.429046000
H        2.295648000     -1.062695000     -1.990221000
H        1.931868000      0.657021000     -1.887954000
H        2.165710000     -0.095284000     -3.459024000
C        5.077981000      0.204264000      3.473842000
H        5.403877000      0.011161000      4.494765000
H        5.421098000      1.192029000      3.169400000
H        3.989249000      0.243515000      3.455116000
C        5.278722000     -2.461535000     -0.934115000
H        4.235104000     -2.223998000     -1.136031000
H        5.879872000     -1.920188000     -1.667561000
H        5.415641000     -3.528375000     -1.108360000
C        8.082171000     -3.742138000      2.977172000
H        8.138721000     -4.683564000      2.432277000
H        9.072269000     -3.281880000      2.952829000
H        7.847382000     -3.958117000      4.019491000
F       -0.529331000      4.807931000      3.011386000
F       -0.884110000      7.167737000      4.174356000
F       -0.222779000      9.445200000      2.875492000
F        0.813094000      9.336345000      0.378866000
F        1.194302000      6.985881000     -0.811574000
F        3.288893000      5.307019000      0.909342000
F        5.421417000      4.838578000     -0.632171000
F        5.120442000      3.621540000     -3.027072000
F        2.674661000      2.748533000     -3.815345000
F        0.569510000      3.053211000     -2.215863000
C        2.049049000      2.311036000      3.081352000
O        4.058092000      1.520827000      1.188361000
O        2.091922000      3.393720000      2.789450000
