85

 C                  0.20824800   -3.03228100    1.20629200
 C                  1.58323700   -2.87577800    1.07012300
 C                  2.11796100   -1.59835100    0.88617700
 C                  1.23971000   -0.53247700    0.88024700
 C                 -0.14845100   -0.65897600    1.02611800
 C                 -0.66143300   -1.94029800    1.18123600
 H                 -0.19436000   -4.02644900    1.34374000
 H                  2.23837200   -3.73739200    1.11307500
 H                 -1.72663900   -2.09760800    1.29200600
 C                  0.47956300    1.51078300    0.80025100
 C                  0.52522400    2.88836200    0.71263200
 C                 -0.74134100    3.45991900    0.80246900
 C                 -1.91545600    2.70657300    0.96400600
 C                 -1.89159600    1.32688800    1.05165400
 C                 -0.64503200    0.70424700    0.96791400
 H                 -0.82882600    4.53933800    0.74641400
 H                 -2.86468900    3.22348700    1.02344700
 H                 -2.80130500    0.75561400    1.18087400
 O                  1.63325200    0.73610000    0.73228800
 P                  3.83842000   -1.20103700    0.69771000
 B                  1.96760000    3.61715700    0.62609800
 C                  2.87656300    3.11277800   -0.65069100
 C                  4.25376600    3.29730900   -0.61413900
 C                  2.40697200    2.54316500   -1.82613100
 C                  5.10371800    2.98693200   -1.66283700
 C                  3.22009600    2.22336900   -2.90340300
 C                  4.57639200    2.47059900   -2.83113200
 C                  1.83861700    5.24014400    0.55613000
 C                  1.25267400    5.87827700   -0.52724200
 C                  2.30567900    6.08595200    1.55066600
 C                  1.12876900    7.25205800   -0.63910000
 C                  2.20443200    7.46760400    1.48151400
 C                  1.61182800    8.05422500    0.37928400
 C                  4.44681600   -0.78661100   -0.93770500
 C                  5.77602100   -0.31470800   -0.96642000
 C                  3.73757500   -1.01638500   -2.13114800
 C                  6.41253400   -0.20556900   -2.19419800
 C                  4.42851100   -0.88688700   -3.32877000
 C                  5.76856900   -0.52328200   -3.38326900
 H                  7.42968200    0.16696100   -2.22294700
 H                  3.89014700   -1.05013100   -4.25474900
 C                  4.80788000   -2.50961600    1.46139900
 C                  5.17769000   -3.64845200    0.72950200
 C                  5.15549900   -2.37534300    2.81966800
 C                  5.92967000   -4.62627000    1.37172200
 C                  5.90988100   -3.37987300    3.40681900
 C                  6.31567300   -4.50672500    2.69929400
 H                  6.21426600   -5.51154500    0.81485500
 H                  6.18159100   -3.28496700    4.45196300
 C                  6.51072700    0.13448000    0.27056500
 H                  5.99496100    0.98067900    0.73451700
 H                  6.61380000   -0.65790900    1.01529800
 H                  7.51009100    0.47236000    0.00677400
 C                  6.48212100   -0.43085000   -4.69868900
 H                  6.84074300   -1.41593300   -5.00567000
 H                  5.81316000   -0.06016500   -5.47422800
 H                  7.33868900    0.23765100   -4.63310800
 C                  2.26711800   -1.33233000   -2.19867500
 H                  1.99704800   -2.24792400   -1.67163800
 H                  1.68141200   -0.51583800   -1.76983800
 H                  1.96719600   -1.43995000   -3.23854200
 C                  4.73748000   -1.19398300    3.65596300
 H                  4.99792200   -1.36335200    4.69815700
 H                  5.23852900   -0.27650800    3.33674100
 H                  3.66064700   -1.01970500    3.60701000
 C                  4.79227700   -3.86928000   -0.71014900
 H                  3.75530900   -3.59152100   -0.90811500
 H                  5.41936600   -3.28257700   -1.38455000
 H                  4.90764300   -4.92079900   -0.96616800
 C                  7.15418200   -5.56065200    3.36229200
 H                  7.14444200   -6.48995700    2.79549900
 H                  8.19027800   -5.22493600    3.44055300
 H                  6.79908900   -5.76460400    4.37228900
 F                  2.88849500    5.59571100    2.64902300
 F                  2.67034500    8.23848500    2.46411000
 F                  1.50596900    9.37796100    0.29807800
 F                  0.55474900    7.81024100   -1.70461100
 F                  0.76827400    5.14582100   -1.54088900
 F                  4.83302900    3.81896700    0.47492800
 F                  6.42250800    3.17883500   -1.56508500
 F                  5.36767100    2.21995000   -3.87578400
 F                  2.70867200    1.68117000   -4.01224700
 F                  1.10593800    2.26987300   -1.98855200
 H                  2.57463300    3.31066000    1.62497600
 H                  4.02680600   -0.05912300    1.47283300

