86

 C                  1.06030200   -2.56592000    1.42816600
 C                  2.39177000   -2.16567700    1.31508700
 C                  2.74291100   -0.84494200    1.04104200
 C                  1.67308000    0.02304100    0.92475500
 C                  0.32668700   -0.33281300    1.03450500
 C                  0.01431200   -1.66410900    1.28315900
 H                  0.84228100   -3.60551600    1.63420400
 H                  3.17820500   -2.90195000    1.43701900
 H                 -1.01393100   -1.98746000    1.37750200
 C                  0.53695000    1.90244900    0.72041200
 C                  0.30142000    3.26038600    0.60251000
 C                 -1.04921500    3.59700700    0.64692700
 C                 -2.05637300    2.63508100    0.78861600
 C                 -1.75886500    1.28803200    0.91850800
 C                 -0.41910600    0.90783500    0.89288700
 H                 -1.33355200    4.64019500    0.56597000
 H                 -3.08979900    2.95479400    0.80827000
 H                 -2.54549800    0.55550100    1.04340200
 O                  1.81196600    1.37043800    0.71356100
 P                  4.42071100   -0.10973700    0.92953300
 B                  1.53283100    4.27787600    0.44833400
 C                  2.35659600    4.22279900   -0.94295700
 C                  3.54862600    4.92948300   -1.05435300
 C                  1.95673700    3.54824500   -2.08815600
 C                  4.29957300    4.97967600   -2.21247000
 C                  2.67733200    3.58293400   -3.27164400
 C                  3.84987800    4.30820300   -3.33413400
 C                  1.15150300    5.77957100    0.92899700
 C                  0.78586500    6.77318100    0.03152900
 C                  1.07980000    6.14992000    2.26145000
 C                  0.40622000    8.04760500    0.42273500
 C                  0.71479600    7.40750600    2.70236800
 C                  0.37519800    8.36916100    1.76743200
 C                  4.60323300    0.25510200   -0.86515700
 C                  5.30311400    1.43858100   -1.17390700
 C                  4.11214800   -0.54389600   -1.91564100
 C                  5.53025700    1.77223800   -2.50674700
 C                  4.32815500   -0.14602200   -3.22899300
 C                  5.04766400    0.99746200   -3.55138900
 H                  6.11137800    2.66055000   -2.73291600
 H                  3.95626700   -0.77480000   -4.03104200
 C                  5.49733100   -1.52191700    1.42799200
 C                  6.47781700   -2.16683300    0.64674700
 C                  5.36106900   -1.89494600    2.78652300
 C                  7.20525200   -3.21500600    1.20802900
 C                  6.10891000   -2.95211700    3.29128200
 C                  7.02340600   -3.64425200    2.51277200
 H                  7.95422000   -3.70514100    0.59568100
 H                  5.98388300   -3.22623300    4.33333900
 C                  5.87629400    2.35395800   -0.11865400
 H                  5.09667500    2.76980400    0.52146200
 H                  6.57787300    1.83386800    0.53643300
 H                  6.40213600    3.18425400   -0.58928100
 C                  5.29401500    1.36516800   -4.98706400
 H                  6.07208300    2.12160200   -5.07425900
 H                  5.59204300    0.48876900   -5.56356100
 H                  4.38616600    1.76651600   -5.44158800
 C                  3.42574100   -1.86691400   -1.70273700
 H                  3.89392200   -2.43801400   -0.90059600
 H                  2.37437700   -1.74090300   -1.43906300
 H                  3.47398100   -2.45771600   -2.61671600
 C                  4.44843200   -1.17722900    3.74982200
 H                  4.72188600   -1.42803800    4.77330900
 H                  4.51694600   -0.09467300    3.63129400
 H                  3.40193300   -1.45075300    3.60680300
 C                  6.85042400   -1.78530600   -0.76573100
 H                  6.09510400   -2.08836600   -1.48975300
 H                  6.99500700   -0.71287000   -0.88241500
 H                  7.78152500   -2.28100200   -1.03541800
 C                  7.79556100   -4.80782300    3.06688800
 H                  7.23341700   -5.73596900    2.94129500
 H                  8.74986300   -4.92776400    2.55506400
 H                  7.98795900   -4.68150100    4.13214300
 F                  1.37688800    5.24706200    3.22767400
 F                  0.68108200    7.69585300    3.99706800
 F                  0.01672200    9.58238900    2.15801400
 F                  0.06756400    8.95928100   -0.47888000
 F                  0.76663200    6.52634300   -1.28028600
 F                  4.01318400    5.62173300   -0.00773200
 F                  5.44935200    5.64661000   -2.25892900
 F                  4.56535100    4.33253800   -4.45099700
 F                  2.25836500    2.91443200   -4.34135700
 F                  0.82843400    2.83903700   -2.11255200
 O                  2.66663900    3.75028600    1.51012000
 H                  2.78927000    2.78491700    1.38094300
 H                  2.40173900    3.92055000    2.42863000

