88

C        0.565736000      0.101655000     -0.759143000
C        1.950297000      0.147686000     -0.920379000
C        2.572730000      1.367510000     -1.176723000
C        1.761420000      2.481092000     -1.249346000
C        0.381513000      2.483229000     -1.033505000
C       -0.221925000      1.251804000     -0.799605000
H        0.095020000     -0.852681000     -0.566650000
H        2.542677000     -0.754229000     -0.823114000
H       -1.288605000      1.179877000     -0.630968000
C        1.199215000      4.582531000     -1.327426000
C        1.375699000      5.950260000     -1.419941000
C        0.190335000      6.653769000     -1.231064000
C       -1.039640000      6.020629000     -0.992849000
C       -1.150470000      4.643450000     -0.914408000
C        0.012924000      3.891900000     -1.079665000
H        0.208301000      7.736595000     -1.271921000
H       -1.924272000      6.629954000     -0.861792000
H       -2.104835000      4.170741000     -0.723438000
O        2.256698000      3.705275000     -1.470176000
P        4.322988000      1.725082000     -1.181659000
B        2.874788000      6.520500000     -1.720894000
C        3.401427000      6.155933000     -3.240964000
C        4.727332000      6.432830000     -3.553635000
C        2.681926000      5.542322000     -4.254447000
C        5.309013000      6.126095000     -4.770997000
C        3.228900000      5.212411000     -5.485470000
C        4.548788000      5.513323000     -5.747809000
C        2.946329000      8.141574000     -1.506421000
C        2.288325000      8.969095000     -2.406396000
C        3.626126000      8.805194000     -0.497201000
C        2.298352000     10.350626000     -2.335299000
C        3.664599000     10.187090000     -0.386756000
C        2.997052000     10.965914000     -1.312276000
C        5.068270000      2.301898000     -2.712106000
C        6.356607000      2.856619000     -2.547626000
C        4.491922000      2.183407000     -3.987490000
C        7.082625000      3.183723000     -3.682553000
C        5.274260000      2.520131000     -5.087709000
C        6.574669000      2.990528000     -4.962436000
H        8.073106000      3.608071000     -3.563971000
H        4.841275000      2.428373000     -6.077732000
C        5.195152000      0.327724000     -0.460666000
C        5.562203000     -0.776032000     -1.245677000
C        5.476114000      0.365225000      0.919198000
C        6.238968000     -1.824360000     -0.634301000
C        6.157641000     -0.708722000      1.475121000
C        6.555045000     -1.804826000      0.717729000
H        6.521259000     -2.682469000     -1.233424000
H        6.378286000     -0.690873000      2.536281000
C        6.953291000      3.142008000     -1.193637000
H        6.330839000      3.849493000     -0.636861000
H        7.067565000      2.237364000     -0.591022000
H        7.939532000      3.585315000     -1.309865000
C        7.408825000      3.320164000     -6.165796000
H        8.351368000      2.771157000     -6.136825000
H        6.888140000      3.074207000     -7.088853000
H        7.645704000      4.384919000     -6.183237000
C        3.065856000      1.773347000     -4.242728000
H        2.787874000      0.836589000     -3.761357000
H        2.381035000      2.544279000     -3.880176000
H        2.900587000      1.666051000     -5.312765000
C        5.064511000      1.510732000      1.805375000
H        5.295313000      1.280120000      2.842989000
H        5.574812000      2.440582000      1.544664000
H        3.994223000      1.717113000      1.738694000
C        5.247854000     -0.873016000     -2.714352000
H        4.222087000     -0.569449000     -2.931765000
H        5.908207000     -0.235899000     -3.305747000
H        5.367924000     -1.899360000     -3.055824000
C        7.318780000     -2.932573000      1.349509000
H        7.235088000     -3.845862000      0.762575000
H        8.378091000     -2.676761000      1.421070000
H        6.960475000     -3.132169000      2.358962000
F        4.292461000      8.130554000      0.448510000
F        4.335075000     10.771046000      0.603003000
F        3.021903000     12.290403000     -1.218742000
F        1.647139000     11.089221000     -3.229928000
F        1.591115000      8.426594000     -3.415476000
F        5.515387000      7.034301000     -2.658759000
F        6.594305000      6.395358000     -5.006799000
F        5.094964000      5.175725000     -6.914806000
F        2.503212000      4.578037000     -6.408058000
F        1.392639000      5.215525000     -4.099353000
C        3.660853000      5.408035000      0.356718000
H        2.843271000      5.935507000      0.872571000
O        3.879032000      5.767605000     -0.867667000
O        4.294606000      4.537084000      0.918928000
H        4.444081000      2.798596000     -0.292139000







































