63

 N                  8.53254900    8.52567600    2.98702600
 B                  4.98421900    7.63444400    3.38438100
 H                  5.51975700    7.50131400    4.45657600
 C                  8.45033400    9.19023400    4.28168000
 H                  9.37433400    9.21424400    4.84339900
 C                  7.32347200    9.71599800    4.72756000
 H                  6.43245800    9.65175300    4.11149900
 C                  7.17972200   10.37166600    6.05860800
 H                  8.11701500   10.37652900    6.61375700
 H                  6.42493400    9.84320300    6.64450000
 H                  6.83197000   11.39980700    5.94452700
 C                  9.12943600    7.11417600    3.08439200
 C                  8.86274000    6.40709600    1.73733100
 H                  9.67794200    5.69728700    1.58266100
 H                  7.94180300    5.83038700    1.82291300
 C                  8.74862500    7.34854900    0.53491100
 H                  7.70652700    7.64463300    0.40443000
 H                  9.03362500    6.82193100   -0.37519800
 C                  9.60654100    8.58968200    0.71570100
 H                  9.56500500    9.21983800   -0.17433800
 H                 10.65314900    8.30840700    0.84223400
 C                  9.13014100    9.44711400    1.89881100
 C                 10.61882800    7.14755400    3.42405100
 H                 10.93061500    6.12039900    3.61489300
 H                 10.82182400    7.71731400    4.33117600
 H                 11.24024300    7.53152400    2.61967200
 C                  8.39138500    6.36743100    4.19206600
 H                  7.31145700    6.43092000    4.06226400
 H                  8.64926100    6.74101900    5.18294000
 H                  8.68354300    5.31796700    4.13798300
 C                  7.99840200   10.36760400    1.44768400
 H                  7.20836800    9.82152800    0.93392600
 H                  8.40603300   11.11015900    0.76189600
 H                  7.55377200   10.89464300    2.29153500
 C                 10.27215600   10.29435100    2.44934900
 H                 10.71822300   10.83065000    1.61083000
 H                 11.05387300    9.69809800    2.91638100
 H                  9.91451500   11.03290300    3.16603500
 C                  3.95081200    8.90873900    3.49078900
 C                  3.11662500    9.00470000    4.59704600
 F                  3.15630500    8.05140300    5.53396900
 C                  2.22531900   10.04296300    4.80085600
 F                  1.45400200   10.08499900    5.88374100
 C                  2.14053100   11.05583300    3.86047900
 F                  1.29401800   12.06453600    4.03520300
 C                  2.94489700   11.00535700    2.73855600
 F                  2.87018500   11.97217500    1.82608800
 C                  3.82021800    9.94196000    2.57866300
 F                  4.56117500    9.96511600    1.45065100
 C                  4.14162700    6.28406400    3.01381500
 C                  3.98345300    5.20647400    3.86814900
 F                  4.53662800    5.21396700    5.08512100
 C                  3.26719700    4.06926900    3.52338200
 F                  3.14328700    3.05407500    4.37530500
 C                  2.68022400    3.98606400    2.27423800
 F                  1.99460300    2.90222600    1.92719400
 C                  2.81635100    5.03771000    1.38358600
 F                  2.25884100    4.96131400    0.17721100
 C                  3.53745900    6.14953500    1.77553700
 F                  3.65087900    7.15181600    0.88130700
 H                  7.51421400    8.33062400    2.69207400
 O                  6.05570200    7.86966500    2.35826900
 H                  5.65986500    8.09017700    1.50973600