65

 N                  8.23844700    8.25959500    2.83729700
 B                  5.33916100    9.22292400    4.42934600
 H                  5.71301000    8.53355100    5.34570600
 C                  7.68439200    8.99613600    3.75018200
 H                  8.02188700    8.72910000    4.74608800
 C                  6.69598600   10.05426800    3.83664000
 H                  6.45377100   10.56715100    2.91948300
 C                  7.18196900   11.03706900    4.91675900
 H                  7.28550000   10.52682900    5.87750100
 H                  6.46519200   11.84195300    5.04650700
 H                  8.14370500   11.48720900    4.65945600
 C                  9.23460900    7.22185600    3.37578300
 C                  9.61180100    6.21457200    2.29113500
 H                 10.39732200    5.58935200    2.71767900
 H                  8.76959600    5.54693000    2.12052800
 C                 10.09509200    6.83680500    0.98051200
 H                  9.84188300    6.15759600    0.16579800
 H                 11.18171200    6.93036200    0.97742200
 C                  9.47674100    8.21254000    0.72802800
 H                  9.38185300    8.38542300   -0.34426100
 H                 10.11832100    9.01028500    1.11026700
 C                  8.08274200    8.39654000    1.34058000
 C                 10.48022800    7.96583500    3.86011400
 H                 11.16235200    7.24794200    4.31728100
 H                 10.22951600    8.71570000    4.61180100
 H                 11.00417000    8.45965900    3.04247800
 C                  8.59553800    6.43996400    4.52669800
 H                  7.58492100    6.13124500    4.26392000
 H                  8.56381800    6.99669000    5.46245600
 H                  9.18938500    5.54324200    4.70382800
 C                  7.10681300    7.34654700    0.80394600
 H                  7.48838200    6.33239700    0.86406700
 H                  6.91635200    7.56767900   -0.24791200
 H                  6.16081000    7.39858100    1.33908800
 C                  7.57992000    9.78017000    0.93774100
 H                  7.74293200    9.88227400   -0.13488700
 H                  8.12662200   10.57794700    1.44057900
 H                  6.51357300    9.90110300    1.11285200
 C                  4.18994300   10.24236900    4.98373000
 C                  3.31253400    9.76961200    5.95373100
 F                  3.43683700    8.51958600    6.41344200
 C                  2.27464300   10.51623600    6.48345500
 F                  1.46960700   10.00737200    7.41248700
 C                  2.07148000   11.80837000    6.03369900
 F                  1.08244600   12.54388500    6.52742000
 C                  2.90698500   12.32219900    5.06099600
 F                  2.71879100   13.56237000    4.61666200
 C                  3.93181700   11.53673200    4.55638400
 F                  4.68924800   12.11386400    3.61021300
 C                  4.64917400    8.26548300    3.29595600
 C                  4.52303300    6.89262300    3.43376800
 F                  5.04669600    6.24465000    4.48534100
 C                  3.86918200    6.09351400    2.50996200
 F                  3.77250900    4.76747100    2.70915400
 C                  3.31964900    6.65039300    1.37268500
 F                  2.70795300    5.88654300    0.47763200
 C                  3.42077000    8.01817800    1.18635300
 F                  2.90310600    8.57494400    0.09766300
 C                  4.06781100    8.78101700    2.14380700
 F                  4.13223900   10.09569100    1.90472400
 C                  6.47359000    3.85791400    1.49030300
 O                  7.37814500    3.89252300    0.71554200
 O                  6.57755400    4.38148600    2.71822500
 H                  5.73832500    4.31312600    3.19636000
 H                  5.49393300    3.40875600    1.27205300

