82

 C                  6.46710500    8.17108700    4.75471000
 H                  7.09660000    7.34098500    5.07400900
 C                  7.28117000    9.11000000    3.84576000
 H                  7.56885900    8.62578900    2.90941800
 H                  6.64989000    9.96007200    3.56835800
 C                  8.52270800    9.61317300    4.57194600
 H                  9.17267700    8.76163100    4.80309000
 H                  9.08829100   10.27787300    3.91599800
 C                  8.12672800   10.31829700    5.86073000
 H                  7.56910000   11.22778700    5.61319600
 H                  9.01656800   10.63216100    6.41053300
 C                  7.25783100    9.41898000    6.73270700
 H                  6.96236400    9.95127700    7.63645000
 H                  7.85131700    8.55750500    7.06485500
 C                  5.97677100    8.89346500    6.04734800
 H                  5.41445300    9.78076500    5.72679900
 C                  4.59798500    8.42697300    2.37729500
 C                  3.57624100    9.37612500    2.58539800
 C                  3.16421600   10.16560300    1.52090000
 H                  2.37731700   10.89213300    1.68776400
 C                  3.72795000   10.05154300    0.25731100
 C                  4.72169300    9.10252500    0.07175800
 H                  5.16756600    8.99072600   -0.90998200
 C                  5.16968400    8.27971300    1.10020400
 C                  2.89269800    9.55553800    3.91169200
 H                  2.33631000    8.65836800    4.20073500
 H                  2.18588300   10.38194200    3.87030900
 H                  3.60339900    9.76891300    4.70883600
 C                  3.28914800   10.94695300   -0.86486900
 H                  2.22180800   11.15727000   -0.80474900
 H                  3.50242700   10.49977600   -1.83461000
 H                  3.81628500   11.90209600   -0.81390800
 C                  6.21753200    7.25675900    0.74636800
 H                  5.76804300    6.27208300    0.60292100
 H                  6.98576000    7.14993800    1.50774700
 H                  6.71044300    7.54274000   -0.18102200
 C                  5.25872600    5.67575500    3.22476200
 C                  4.03502000    5.05693300    2.89816500
 C                  4.05274900    3.74496000    2.44127100
 H                  3.11159100    3.27130700    2.18729100
 C                  5.23165200    3.02608000    2.31101700
 C                  6.42017000    3.65614600    2.65206200
 H                  7.35159500    3.10874100    2.56188200
 C                  6.46495000    4.96561200    3.11337800
 C                  2.69469300    5.73133900    3.04665800
 H                  2.64558400    6.68873200    2.52526900
 H                  2.46007300    5.90393500    4.10043900
 H                  1.91175200    5.09349900    2.64301400
 C                  5.22004700    1.59669100    1.85255600
 H                  6.13204700    1.34846300    1.31095400
 H                  4.36522100    1.39514100    1.20839800
 H                  5.15342100    0.92746100    2.71301300
 C                  7.82015400    5.50287500    3.49180800
 H                  7.98649800    5.37252500    4.56340500
 H                  7.95719500    6.55647700    3.25993100
 H                  8.59543500    4.94681100    2.96749800
 C                  5.79826500    6.84036200    7.90145900
 C                  6.15367500    6.82558200    9.24752800
 F                  5.85752600    7.85041700   10.04937900
 C                  6.82875900    5.77564600    9.85414100
 F                  7.14238900    5.82457200   11.14650200
 C                  7.18784400    4.66745400    9.11064800
 F                  7.84057200    3.65652800    9.67402000
 C                  6.85706700    4.62897600    7.76986400
 F                  7.19434300    3.57334600    7.02635500
 C                  6.17834600    5.69944100    7.21757800
 F                  5.88329700    5.57472300    5.90526400
 C                  2.65414600    9.10612600    7.01911600
 F                  3.21357600   10.31173900    7.17939300
 C                  1.27764800    9.09959800    6.88247300
 F                  0.57883400   10.23198200    6.93321000
 C                  0.62191100    7.90161700    6.65954500
 F                 -0.69793700    7.87031700    6.51237800
 C                  1.36641100    6.74135900    6.57804300
 F                  0.75759700    5.57849900    6.34619100
 C                  2.74563700    6.80039200    6.72866600
 F                  3.38311000    5.62514600    6.60606700
 C                  3.45753600    7.97002600    6.95092600
 P                  5.11553900    7.39402900    3.78102800
 B                  5.07249900    8.15648000    7.23937500
 H                  5.07198700    8.98744000    8.10768900
 H                  4.01652500    7.36770100    4.62825600