85

C        6.219137000      8.444554000      4.429074000
H        7.059855000      7.914240000      4.878628000
C        6.728477000      9.367051000      3.301103000
H        7.185445000      8.798776000      2.489735000
H        5.866176000      9.879269000      2.864445000
C        7.712359000     10.410611000      3.814016000
H        8.600937000      9.910734000      4.215578000
H        8.044552000     11.033184000      2.981048000
C        7.062458000     11.247079000      4.905081000
H        6.226739000     11.814538000      4.483006000
H        7.772898000     11.972156000      5.306601000
C        6.553070000     10.337918000      6.013538000
H        6.114360000     10.932337000      6.815057000
H        7.414726000      9.822685000      6.454082000
C        5.528792000      9.280347000      5.551017000
H        4.705971000      9.816621000      5.072730000
C        4.334366000      7.775822000      2.177677000
C        3.071428000      8.378386000      2.357742000
C        2.428536000      8.910862000      1.247498000
H        1.459001000      9.376133000      1.383445000
C        2.983434000      8.859742000     -0.024483000
C        4.210370000      8.230681000     -0.178453000
H        4.647844000      8.160861000     -1.167894000
C        4.900664000      7.678159000      0.894849000
C        2.359045000      8.428842000      3.685016000
H        2.103634000      7.426523000      4.041172000
H        1.434791000      8.993940000      3.586897000
H        2.952249000      8.890530000      4.472920000
C        2.278698000      9.482103000     -1.195127000
H        1.198738000      9.365012000     -1.110643000
H        2.604779000      9.038904000     -2.134891000
H        2.491195000     10.552481000     -1.238730000
C        6.188162000      6.955979000      0.588242000
H        6.025451000      5.876203000      0.556983000
H        6.971354000      7.133718000      1.321231000
H        6.564814000      7.270414000     -0.383484000
C        5.877021000      5.497958000      3.300311000
C        4.919366000      4.495610000      3.037149000
C        5.366185000      3.213589000      2.735781000
H        4.630091000      2.445857000      2.527786000
C        6.712822000      2.887731000      2.704323000
C        7.631594000      3.888177000      2.990821000
H        8.689174000      3.650155000      2.983742000
C        7.246902000      5.187114000      3.295421000
C        3.430252000      4.724274000      3.093243000
H        3.106512000      5.521060000      2.421501000
H        3.107943000      4.978654000      4.107440000
H        2.909218000      3.815021000      2.801753000
C        7.166587000      1.486878000      2.411805000
H        8.111850000      1.483932000      1.869946000
H        6.425893000      0.945954000      1.824664000
H        7.318497000      0.938527000      3.343958000
C        8.346094000      6.157891000      3.636528000
H        8.411265000      6.295575000      4.718782000
H        8.216960000      7.137675000      3.180815000
H        9.303313000      5.762542000      3.302529000
C        6.245386000      7.720926000      7.590964000
C        7.031387000      8.284298000      8.589796000
F        6.723990000      9.480304000      9.103040000
C        8.166123000      7.685494000      9.111062000
F        8.869283000      8.280717000     10.067811000
C        8.580410000      6.458923000      8.622992000
F        9.670347000      5.874830000      9.102889000
C        7.846626000      5.859726000      7.618717000
F        8.234232000      4.690700000      7.112617000
C        6.716064000      6.499879000      7.137218000
F        6.071668000      5.853220000      6.141161000
C        3.572829000     10.705964000      7.628589000
F        3.701228000     11.249946000      6.406224000
C        2.820552000     11.458958000      8.518359000
F        2.299286000     12.624874000      8.144745000
C        2.603714000     10.989932000      9.797687000
F        1.884399000     11.693768000     10.662281000
C        3.142027000      9.769293000     10.160837000
F        2.938345000      9.295388000     11.385930000
C        3.885066000      9.057340000      9.237618000
F        4.359700000      7.876453000      9.668238000
C        4.154229000      9.485486000      7.942269000
P        5.165563000      7.129020000      3.650850000
B        4.956475000      8.490966000      6.884600000
C        3.537196000      6.391734000      6.964560000
O        3.905604000      7.520755000      6.413797000
O        2.808798000      5.612273000      6.402825000
H        3.946400000      6.200992000      7.968121000
H        4.132903000      6.838872000      4.525353000








































































