82

P        3.667887000      4.708181000      7.667890000
B        0.915744000      4.723334000      9.602822000
C        4.184399000      4.108402000      9.282255000
C        3.576474000      4.607512000     10.492141000
C        2.212870000      5.062965000     10.614397000
C        1.899051000      5.669701000     11.817986000
H        0.897416000      6.056337000     11.950722000
C        2.768818000      5.752598000     12.922295000
H        2.434785000      6.236645000     13.831493000
C        3.988992000      5.154124000     12.861976000
H        4.648299000      5.116316000     13.720622000
C        4.413932000      4.562748000     11.650744000
C        5.652720000      3.880072000     11.632925000
H        6.223984000      3.837188000     12.552906000
C        6.108376000      3.265442000     10.506031000
H        7.035704000      2.709279000     10.502929000
C        5.386197000      3.434234000      9.313089000
H        5.825258000      3.044949000      8.406209000
C        3.958014000      6.509899000      7.757162000
H        3.510423000      6.746596000      8.727986000
C        5.453047000      6.820484000      7.810149000
H        5.945305000      6.580385000      6.865143000
H        5.953458000      6.273568000      8.610760000
H        5.593624000      7.886365000      7.992439000
C        3.212558000      7.313471000      6.693540000
H        3.328763000      8.375333000      6.916642000
H        2.147831000      7.088028000      6.709936000
H        3.603963000      7.142716000      5.691273000
C        4.650777000      3.899121000      6.354973000
H        5.699429000      3.972166000      6.648345000
C        4.232474000      2.425812000      6.253012000
H        3.237279000      2.344331000      5.813473000
H        4.209114000      1.921947000      7.219497000
H        4.928355000      1.895051000      5.602238000
C        4.495125000      4.600595000      5.002764000
H        5.001677000      4.005420000      4.241420000
H        4.941526000      5.593030000      5.000711000
H        3.449072000      4.690337000      4.707357000
C        0.579334000      3.096385000      9.418357000
C        1.204086000      1.999574000     10.045284000
C        0.928129000      0.684507000      9.646085000
H        1.439702000     -0.127994000     10.153687000
C        0.015829000      0.383035000      8.656358000
C       -0.671216000      1.451552000      8.093110000
H       -1.440308000      1.249344000      7.353501000
C       -0.422895000      2.769275000      8.457892000
C        2.146002000      2.080552000     11.232015000
H        1.990954000      1.203966000     11.862298000
H        1.991038000      2.959607000     11.850612000
H        3.195002000      2.069499000     10.924769000
C       -0.253556000     -1.031102000      8.222178000
H        0.105898000     -1.204817000      7.205316000
H       -1.323257000     -1.246915000      8.228389000
H        0.241637000     -1.745606000      8.879320000
C       -1.332939000      3.797432000      7.816014000
H       -1.837477000      3.360413000      6.953857000
H       -0.815316000      4.700798000      7.506317000
H       -2.100101000      4.112526000      8.527552000
C       -0.412339000      5.564567000     10.115192000
C       -0.663069000      6.885944000      9.687858000
C       -1.846775000      7.541562000     10.025393000
H       -2.003144000      8.555672000      9.669131000
C       -2.816893000      6.951232000     10.818134000
C       -2.532649000      5.692744000     11.324519000
H       -3.238792000      5.227071000     12.005545000
C       -1.360432000      5.010580000     11.003794000
C        0.326865000      7.702352000      8.887308000
H        0.236854000      7.499502000      7.819527000
H        1.354011000      7.479171000      9.174222000
H        0.143373000      8.765374000      9.049560000
C       -4.110484000      7.650927000     11.131740000
H       -3.987612000      8.734276000     11.114410000
H       -4.486465000      7.363675000     12.114170000
H       -4.879134000      7.395121000     10.398435000
C       -1.162661000      3.682096000     11.698320000
H       -1.777609000      3.643884000     12.598179000
H       -0.124589000      3.531821000     11.992779000
H       -1.440568000      2.838652000     11.063531000
O        1.209147000      5.241595000      8.197188000
C        1.904055000      4.474110000      7.304597000
H        1.681977000      3.401176000      7.337700000
H        1.737702000      4.822845000      6.276896000

























 
