51

F    7.7583    10.2477     2.5535 
F    6.6264     9.8623     0.1972 
F    4.0278     9.1353     0.0313 
F    2.5649     8.7955     2.2802 
F    3.6550     9.1635     4.6546 
F    5.8499     7.2320     5.9946 
F    4.7341     6.5679     8.3489 
F    3.9013     8.5065    10.0506 
F    4.1987    11.1154     9.3821 
F    5.3463    11.7826     7.0394 
N    9.2781     8.4694     6.9608 
C    8.6693     9.6269     7.6074 
H    7.7122     9.2797     7.9971 
H    9.2500     9.9399     8.4892 
C    8.4367    10.8408     6.7029 
H    9.3686    11.3908     6.5751 
H    7.7676    11.5154     7.2421 
C    7.8849    10.5401     5.3066 
H    8.5687     9.8566     4.7871 
H    7.9313    11.4523     4.7004 
C    5.7780     9.7238     3.7456 
C    6.4801     9.8927     2.5476 
C    5.9140     9.6964     1.3024 
C    4.5843     9.3223     1.2127 
C    3.8399     9.1482     2.3659 
C    4.4398     9.3464     3.5958 
C    5.6540     9.5289     6.4546 
C    5.4572     8.2109     6.8212 
C    4.8837     7.8445     8.0245 
C    4.4611     8.8346     8.8975 
C    4.6171    10.1677     8.5554 
C    5.2125    10.4877     7.3475 
B    6.4522     9.9320     5.1476 
C    9.0980     7.2745     7.7863 
H    9.5836     6.4165     7.3316 
H    9.5153     7.4182     8.7926 
H    8.0334     7.0514     7.8766 
C   10.6046     8.6314     6.4798 
C   11.4068     9.7257     6.8036 
C   11.1432     7.6500     5.6391 
C   12.6909     9.8435     6.2828 
H   11.0477    10.4896     7.4767 
C   12.4241     7.7667     5.1332 
H   10.5497     6.7807     5.3882 
C   13.2081     8.8718     5.4450 
H   13.2897    10.7054     6.5485 
H   12.8112     6.9921     4.4837 
H   14.2070     8.9679     5.0416 
O    7.9518     7.5383     3.8523 
C    8.1054     6.6156     4.5306 
O    8.2631     5.6758     5.1815 











 
