86

C     3.2860    -0.5055    18.3470 
C     2.4973    -0.8474    19.3840 
Si    0.7859    -1.5476    18.9696 
C    -0.5408    -1.3702    20.2850 
H    -0.7868    -0.3400    20.5431 
H    -0.2922    -1.9117    21.1978 
H    -1.4481    -1.8222    19.8740 
C     0.9852    -3.3815    18.6329 
H     0.0579    -3.7919    18.2264 
H     1.2199    -3.9293    19.5482 
H     1.7829    -3.5599    17.9089 
C     0.1739    -0.6906    17.4168 
H     0.7558    -0.9596    16.5346 
H     0.2072     0.3956    17.5256 
H    -0.8624    -0.9791    17.2274 
C     5.4849    -0.3637    16.8250 
F     4.5256    -2.5218    16.8243 
C     5.2299    -1.5749    16.1900 
F     5.3993    -3.0623    14.3649 
C     5.6757    -1.8867    14.9188 
F     6.8663    -1.2307    13.0028 
C     6.4260    -0.9555    14.2218 
F     7.4500     1.1513    14.1556 
C     6.7193     0.2583    14.8129 
F     6.6059     1.7134    16.5978 
C     6.2549     0.5274    16.0922 
C     5.0963     1.3679    18.9398 
F     6.4657     0.7787    20.7916 
C     5.8080     1.7115    20.0768 
F     6.5978     3.2732    21.6627 
C     5.8842     3.0035    20.5731 
F     5.2209     5.2505    20.4216 
C     5.1975     4.0158    19.9355 
F     3.7763     4.6875    18.1911 
C     4.4582     3.7243    18.8018 
F     3.7103     2.1903    17.2296 
C     4.4334     2.4261    18.3336 
B     4.8660    -0.1234    18.3136 
H     2.8076    -0.4939    17.3653 
P     3.3135    -0.8463    21.0199 
C     3.2558     0.7924    21.8289 
C     4.1376     0.9310    22.9239 
C     2.5518     1.9172    21.3674 
C     4.3176     2.1786    23.5032 
C     2.7803     3.1505    21.9763 
C     3.6667     3.3109    23.0293 
H     5.0034     2.2730    24.3382 
H     2.2411     4.0165    21.6064 
C     2.4622    -2.1078    22.0358 
C     1.5080    -1.8522    23.0371 
C     2.8488    -3.4383    21.7731 
C     0.9780    -2.9236    23.7508 
C     2.2716    -4.4748    22.4969 
C     1.3417    -4.2389    23.4998 
H     0.2363    -2.7198    24.5155 
H     2.5627    -5.4952    22.2724 
C     3.9434     4.6610    23.6261 
H     3.9153     4.6227    24.7157 
H     4.9381     5.0046    23.3335 
H     3.2199     5.4003    23.2859 
C     1.5223     1.8794    20.2695 
H     1.9752     1.8144    19.2796 
H     0.8628     1.0191    20.3706 
H     0.9128     2.7813    20.3060 
C     4.8794    -0.2414    23.5104 
H     4.1933    -1.0070    23.8809 
H     5.5208    -0.7182    22.7659 
H     5.5044     0.0846    24.3397 
C     0.7624    -5.3702    24.3008 
H     0.6976    -6.2811    23.7064 
H     1.3908    -5.5853    25.1680 
H    -0.2335    -5.1241    24.6675 
C     3.8807    -3.7893    20.7304 
H     3.6676    -3.3401    19.7581 
H     4.8710    -3.4435    21.0398 
H     3.9282    -4.8689    20.5976 
C     0.9851    -0.4775    23.3604 
H     1.7148     0.1182    23.9118 
H     0.7363     0.0788    22.4577 
H     0.0850    -0.5596    23.9678 
C     6.9834    -1.3983    19.2029 
H     5.0898    -1.2101    20.1148 
H     7.4860    -0.4674    18.9485 
H     7.2842    -1.7180    20.1977 
H     7.2126    -2.1680    18.4692 
O     5.5652    -1.2001    19.2031 







 
