82

 C                  3.83474200   -0.88481600   18.47487700
 C                  2.78451200   -0.86542300   19.33268600
 Si                 1.10039100   -1.34488200   18.61070400
 C                 -0.39637600   -1.08212000   19.71306000
 H                 -0.56209200   -0.04547900   20.00770400
 H                 -0.37891100   -1.70503900   20.60764300
 H                 -1.26654900   -1.38458000   19.12338200
 C                  1.17935400   -3.17249200   18.20935400
 H                  0.27875100   -3.49673800   17.68366400
 H                  1.26340900   -3.76112500   19.12657900
 H                  2.04146100   -3.40093200   17.58000800
 C                  0.86127400   -0.32038200   17.06499700
 H                  1.67754800   -0.44196600   16.35219500
 H                  0.79823600    0.74063800   17.31625700
 H                 -0.06796200   -0.60396800   16.56600200
 C                  6.28340100   -0.60731500   17.33391100
 F                  8.18735700   -1.38503400   18.48633800
 C                  7.63048200   -0.94775700   17.35099500
 F                  9.74602300   -1.20016000   16.32776700
 C                  8.46316000   -0.85389500   16.25039500
 F                  8.72934200   -0.29120000   13.98058000
 C                  7.94977800   -0.38970700   15.05211300
 F                  6.11645200    0.42964900   13.83855100
 C                  6.61915500   -0.02570500   14.98449700
 F                  4.54650400    0.25689600   15.96397000
 C                  5.82320800   -0.13446100   16.11476100
 C                  5.81092700    0.49793200   19.69655200
 F                  6.88962400   -0.84914300   21.31768500
 C                  6.49200600    0.36126700   20.89568500
 F                  7.33438300    1.22332400   22.93092600
 C                  6.73792900    1.41886400   21.75578700
 F                  6.49296600    3.70544400   22.24760200
 C                  6.30198600    2.68570900   21.41572900
 F                  5.19950400    4.09184600   19.89424000
 C                  5.64447000    2.87908300   20.21460200
 F                  4.77494400    2.02936500   18.23883100
 C                  5.42666600    1.79318000   19.38561500
 B                  5.42409200   -0.74855400   18.71374000
 H                  3.54688600   -1.12664900   17.44975700
 P                  3.17218800   -0.76779800   21.06162900
 C                  3.25573500    0.82441300   21.91111500
 C                  3.93092000    0.84159300   23.14674500
 C                  2.70897600    2.00395100   21.37890400
 C                  4.04771800    2.04933500   23.82476600
 C                  2.85655500    3.18269300   22.09918200
 C                  3.52562100    3.23086300   23.31614900
 H                  4.57616500    2.06574700   24.77098800
 H                  2.44393900    4.09649100   21.68730300
 C                  2.17260800   -1.97317700   21.96963900
 C                  1.07316700   -1.62544500   22.77235400
 C                  2.55981900   -3.32157900   21.83007400
 C                  0.38443500   -2.64148300   23.42449800
 C                  1.82868000   -4.29579400   22.49889100
 C                  0.74105500   -3.97810300   23.30104600
 H                 -0.46714300   -2.37746600   24.04148300
 H                  2.12360900   -5.33338000   22.39087000
 C                  3.71378600    4.53433700   24.03515200
 H                  3.89451000    4.37842700   25.09761200
 H                  4.57617700    5.06128000   23.62144700
 H                  2.84262100    5.17819800   23.91784700
 C                  1.97222200    2.06177700   20.06786900
 H                  2.63247700    1.85314200   19.22579700
 H                  1.16073800    1.33360600   20.02564800
 H                  1.54217600    3.05160400   19.92838300
 C                  4.54120500   -0.38845800   23.76672200
 H                  3.80662100   -1.18494900   23.90291900
 H                  5.35472200   -0.78698500   23.15558400
 H                  4.95940700   -0.14511300   24.74084700
 C                 -0.05021700   -5.05317800   23.98878300
 H                 -0.86177400   -5.39688400   23.34371000
 H                  0.57464700   -5.91446700   24.22131400
 H                 -0.49489600   -4.68548500   24.91263900
 C                  3.74586200   -3.75278500   21.00583600
 H                  3.73969300   -3.31998600   20.00399900
 H                  4.68624900   -3.45526000   21.47818500
 H                  3.75587000   -4.83608900   20.90575400
 C                  0.58108800   -0.21347400   22.95778900
 H                  1.21336700    0.34501200   23.65081200
 H                  0.56105600    0.34120000   22.02106300
 H                 -0.43157700   -0.22830100   23.35717200
 H                  4.46316100   -1.27567300   21.19326800
 H                  5.74641600   -1.78817500   19.25434400