84
BSiC36PH34OF10
C        3.258701000     -0.526292000     18.284654000
C        2.134465000     -0.939742000     18.905315000
Si       0.665428000     -1.429259000     17.810635000
C       -0.787715000     -2.163486000     18.744418000
H       -1.078289000     -1.595973000     19.629976000
H       -0.595939000     -3.189870000     19.058513000
H       -1.645092000     -2.181339000     18.066542000
C        1.300531000     -2.696096000     16.583394000
H        0.493254000     -2.989186000     15.907933000
H        1.683252000     -3.597640000     17.062127000
H        2.105148000     -2.277714000     15.975555000
C        0.075392000      0.048143000     16.814951000
H        0.902484000      0.709250000     16.547129000
H       -0.673203000      0.636424000     17.346178000
H       -0.380915000     -0.308595000     15.888804000
C        5.808252000     -0.889370000     17.771731000
F        4.802849000     -3.005713000     18.103795000
C        5.735117000     -2.247015000     17.493176000
F        6.427356000     -4.217788000     16.388851000
C        6.558136000     -2.910308000     16.603245000
F        8.334798000     -2.802509000     15.065420000
C        7.527838000     -2.193541000     15.925682000
F        8.563572000     -0.135431000     15.502072000
C        7.639792000     -0.836360000     16.152980000
F        6.966200000      1.103141000     17.191089000
C        6.786833000     -0.215678000     17.055518000
C        5.016274000      1.359740000     19.138534000
F        7.062093000      0.843534000     20.194790000
C        6.147645000      1.751973000     19.845812000
F        7.514821000      3.381167000     20.875572000
C        6.417247000      3.062172000     20.193077000
F        5.760842000      5.325292000     20.158440000
C        5.530996000      4.059135000     19.820234000
F        3.521619000      4.665123000     18.767752000
C        4.401749000      3.720830000     19.105730000
F        3.045454000      2.154767000     18.083842000
C        4.171424000      2.391794000     18.780760000
B        4.751797000     -0.242780000     18.875715000
H        3.182420000     -0.426596000     17.197308000
P        2.382053000     -1.040860000     20.684775000
C        2.497662000      0.655800000     21.335633000
C        3.497558000      1.033500000     22.250639000
C        1.632756000      1.635185000     20.812261000
C        3.690523000      2.387899000     22.502780000
C        1.852764000      2.969597000     21.116073000
C        2.908147000      3.373831000     21.922442000
H        4.484390000      2.676361000     23.182732000
H        1.192158000      3.716759000     20.689318000
C        1.203191000     -2.132311000     21.546113000
C        0.401872000     -1.704590000     22.634421000
C        1.115790000     -3.472153000     21.112723000
C       -0.457419000     -2.619668000     23.228223000
C        0.235696000     -4.340017000     21.752905000
C       -0.560782000     -3.939377000     22.808964000
H       -1.072479000     -2.285656000     24.055960000
H        0.175443000     -5.363693000     21.400458000
C        3.167923000      4.830116000     22.174784000
H        4.129301000      4.981697000     22.663297000
H        3.167536000      5.388182000     21.237314000
H        2.389160000      5.255890000     22.810920000
C        0.445613000      1.324096000     19.944390000
H        0.718538000      1.414733000     18.894545000
H        0.044195000      0.323270000     20.111741000
H       -0.353939000      2.036469000     20.148551000
C        4.361314000      0.075495000     23.027512000
H        3.806966000     -0.809085000     23.344908000
H        5.223130000     -0.236311000     22.435465000
H        4.726448000      0.570008000     23.925771000
C       -1.502522000     -4.887586000     23.492234000
H       -1.525134000     -5.853862000     22.991669000
H       -1.199736000     -5.047050000     24.528614000
H       -2.515281000     -4.482758000     23.507039000
C        1.916367000     -4.083490000     19.987228000
H        2.250864000     -3.374323000     19.236362000
H        2.800319000     -4.589085000     20.381582000
H        1.312838000     -4.837839000     19.482695000
C        0.394292000     -0.316441000     23.227056000
H        1.375020000     -0.015637000     23.591333000
H        0.071026000      0.437929000     22.511670000
H       -0.295914000     -0.293917000     24.067693000
C        4.073987000     -1.794637000     20.717722000
O        4.975471000     -0.897901000     20.199495000
H        3.987228000     -2.705759000     20.126765000
H        4.349210000     -2.077249000     21.732265000
