83

 C                  3.83511200   -0.00066700   18.71979800
 C                  2.84156800   -0.44332400   19.51732600
 Si                 1.18337900   -0.85134900   18.68404600
 C                 -0.34234700   -0.45769000   19.70428200
 H                 -0.35890200    0.56596300   20.08199800
 H                 -0.48616900   -1.14446200   20.53760800
 H                 -1.20355700   -0.56788300   19.03972000
 C                  1.11830300   -2.65723300   18.19174100
 H                  0.25932100   -2.82073800   17.53634500
 H                  1.01256000   -3.31999600   19.05180000
 H                  2.01806200   -2.93974200   17.64095900
 C                  1.09485600    0.19796500   17.13494200
 H                  1.80542900   -0.12062500   16.37127400
 H                  1.28237900    1.25140600   17.35341400
 H                  0.09307300    0.11502200   16.70766600
 C                  6.48558100   -0.50252900   18.44813400
 F                  8.11663000    0.82516800   19.51035000
 C                  7.81340500   -0.23536900   18.74451100
 F                 10.12820500   -0.69968800   18.61072800
 C                  8.87208600   -1.00278000   18.29482900
 F                  9.60749700   -2.86616000   17.06136100
 C                  8.61029500   -2.10863800   17.50364600
 F                  7.04403400   -3.48435400   16.42635700
 C                  7.30263900   -2.41922300   17.18196900
 F                  5.03191100   -1.98455800   17.30462700
 C                  6.27639600   -1.61659300   17.65661500
 C                  5.49412500    1.98642300   18.43255600
 F                  5.81817200    3.15602400   20.47662600
 C                  5.70613600    3.16185000   19.13558500
 F                  6.02867300    5.49791500   19.26756200
 C                  5.82573000    4.40566500   18.53535400
 F                  5.84295300    5.69167800   16.56726200
 C                  5.73329700    4.50945700   17.16078700
 F                  5.43589000    3.45217300   15.08646600
 C                  5.52549400    3.36589900   16.41012400
 F                  5.21454600    1.07564400   16.27239400
 C                  5.41202000    2.14762500   17.05557300
 B                  5.32981400    0.47882500   19.10518700
 H                  3.56826300    0.10996100   17.67047700
 P                  3.23868000   -0.86751300   21.21367300
 C                  3.38037900    0.35930100   22.53405800
 C                  3.93602600   -0.08971300   23.74205300
 C                  2.99021800    1.69837100   22.37848800
 C                  4.04718900    0.81118300   24.79770400
 C                  3.12314700    2.55320700   23.46288900
 C                  3.64087100    2.13119000   24.68249700
 H                  4.47137700    0.46571700   25.73356400
 H                  2.81971800    3.58782600   23.34815100
 C                  2.08624300   -2.17096000   21.73720600
 C                  0.95970000   -1.93122500   22.54008200
 C                  2.39334300   -3.48210800   21.32033800
 C                  0.17330100   -3.01347700   22.92333200
 C                  1.57587600   -4.52584900   21.73213300
 C                  0.46605700   -4.31480400   22.54109400
 H                 -0.70377000   -2.82662000   23.53283900
 H                  1.80767400   -5.53214400   21.40121900
 C                  3.78651100    3.09622500   25.82411900
 H                  3.99897600    2.57728500   26.75741100
 H                  4.60491400    3.79253600   25.63079400
 H                  2.87937900    3.68682600   25.95459400
 C                  2.46203500    2.25781500   21.08719500
 H                  3.23889400    2.23882000   20.32079900
 H                  1.61672400    1.68651100   20.69982400
 H                  2.13940300    3.28723000   21.23039400
 C                  4.45583100   -1.49032100   23.94369400
 H                  4.79733500   -1.61707000   24.96881800
 H                  3.69911500   -2.25106200   23.74593700
 H                  5.30677200   -1.68507900   23.28586900
 C                 -0.38378300   -5.46735900   22.99337700
 H                 -0.49434600   -6.20783600   22.20153600
 H                  0.07794900   -5.96639200   23.84805000
 H                 -1.37445800   -5.13302900   23.29750500
 C                  3.57145300   -3.80336600   20.43524200
 H                  3.65882900   -3.11832600   19.58987400
 H                  4.50982800   -3.76035700   20.99482500
 H                  3.47260300   -4.81088800   20.03602200
 C                  0.53236400   -0.56108600   23.00120800
 H                  1.09212100   -0.24434600   23.88349800
 H                  0.67854200    0.19759500   22.23430700
 H                 -0.52666700   -0.57500500   23.25559200
 H                  4.45109700   -1.53850700   21.23163100
 H                  6.06963600    1.07478000   20.92032700
 O                  5.42321100    0.46452800   20.56153200

