72

 C                 -3.10320000   -1.09400000    1.99360000
 C                 -2.03460000   -1.60070000    1.26520000
 C                 -1.20090000   -0.66910000    0.62840000
 C                 -1.44150000    0.69620000    0.62810000
 C                 -2.53940000    1.14980000    1.35830000
 C                 -3.35070000    0.27240000    2.05010000
 C                  0.60010000    0.94230000   -0.78830000
 C                  0.79350000   -0.42250000   -0.63620000
 C                  1.93770000   -1.08860000   -1.10800000
 C                  2.85060000   -0.33890000   -1.85210000
 C                  2.66860000    1.01940000   -2.06030000
 C                  1.56130000    1.64410000   -1.51590000
 H                 -3.76180000   -1.76200000    2.52500000
 H                 -2.76140000    2.20930000    1.38060000
 H                 -4.19010000    0.64510000    2.62190000
 H                  3.73360000   -0.82490000   -2.24940000
 H                  3.39010000    1.58850000   -2.63020000
 H                  1.43180000    2.70930000   -1.66450000
 O                 -0.12980000   -1.21630000   -0.02790000
 B                  2.32140000   -2.54660000   -0.72970000
 C                 -0.58470000    1.66790000   -0.16940000
 C                 -1.44440000    2.29330000   -1.28150000
 H                 -0.85740000    3.00000000   -1.86990000
 H                 -1.82730000    1.52170000   -1.95050000
 H                 -2.29240000    2.82940000   -0.85340000
 C                 -0.06080000    2.77560000    0.76060000
 H                 -0.88680000    3.32460000    1.21230000
 H                  0.54820000    2.34820000    1.55760000
 H                  0.54730000    3.49080000    0.20650000
 C                  2.04200000   -3.16600000    0.68580000
 C                  1.90370000   -4.53910000    0.88150000
 C                  1.87770000   -2.38630000    1.83110000
 C                  1.58930000   -5.10470000    2.10140000
 C                  1.57710000   -2.91810000    3.06970000
 C                  1.42370000   -4.28630000    3.20230000
 C                  3.13310000   -3.38000000   -1.79510000
 C                  4.25950000   -4.12510000   -1.46130000
 C                  2.77010000   -3.39960000   -3.13850000
 C                  4.99230000   -4.83970000   -2.38950000
 C                  3.46720000   -4.12070000   -4.09270000
 C                  4.58730000   -4.83950000   -3.71420000
 F                  2.03550000   -5.38960000   -0.13880000
 F                  1.42880000   -6.41660000    2.22260000
 F                  1.11190000   -4.80800000    4.37650000
 F                  1.42390000   -2.13300000    4.12810000
 F                  2.02430000   -1.06420000    1.78390000
 F                  1.69590000   -2.73510000   -3.55850000
 F                  3.07620000   -4.12800000   -5.36020000
 F                  5.27070000   -5.52450000   -4.61480000
 F                  6.06990000   -5.52370000   -2.02990000
 F                  4.68700000   -4.15820000   -0.19960000
 P                 -1.58070000   -3.37690000    1.09290000
 C                 -1.98360000   -3.72380000   -0.71490000
 C                 -0.72270000   -3.95030000   -1.54860000
 C                 -2.90010000   -2.70950000   -1.39200000
 H                 -2.50850000   -4.68300000   -0.65500000
 H                 -0.07870000   -4.71260000   -1.11010000
 H                 -0.99160000   -4.27580000   -2.55650000
 H                 -0.15380000   -3.02440000   -1.64980000
 H                 -3.79740000   -2.50290000   -0.80870000
 H                 -2.37780000   -1.76210000   -1.54170000
 H                 -3.20290000   -3.07750000   -2.37520000
 C                 -2.94550000   -4.33790000    1.92460000
 C                 -4.38080000   -4.19840000    1.41630000
 C                 -2.84040000   -4.22990000    3.44780000
 H                 -2.62230000   -5.35520000    1.67020000
 H                 -4.45640000   -4.44230000    0.35670000
 H                 -5.02920000   -4.89180000    1.95790000
 H                 -4.78710000   -3.19740000    1.55070000
 H                 -1.82130000   -4.42800000    3.78420000
 H                 -3.12010000   -3.24400000    3.81780000
 H                 -3.50050000   -4.95920000    3.92190000
