77

C       -1.625479000     -1.374923000      2.495549000
C       -1.175706000     -1.703080000      1.217348000
C       -0.651097000     -0.668709000      0.436549000
C       -0.779085000      0.670892000      0.802681000
C       -1.237785000      0.954943000      2.081333000
C       -1.610698000     -0.065558000      2.944975000
C        0.739800000      1.262853000     -1.011050000
C        0.942567000     -0.100221000     -1.194948000
C        2.096392000     -0.639576000     -1.762270000
C        3.007537000      0.283290000     -2.274792000
C        2.814871000      1.651772000     -2.165017000
C        1.699130000      2.137853000     -1.507268000
H       -1.992845000     -2.151212000      3.149166000
H       -1.309207000      1.981758000      2.412401000
H       -1.937533000      0.165651000      3.949706000
H        3.911313000     -0.075237000     -2.750300000
H        3.550147000      2.337550000     -2.564683000
H        1.577230000      3.204506000     -1.379451000
O       -0.028569000     -0.992370000     -0.743456000
B        2.411129000     -2.219582000     -1.772820000
C       -0.510653000      1.709270000     -0.275195000
C       -1.701710000      1.688518000     -1.256434000
H       -1.530142000      2.404941000     -2.061598000
H       -1.826460000      0.699917000     -1.700059000
H       -2.623909000      1.954487000     -0.735497000
C       -0.379216000      3.115830000      0.298772000
H       -1.294879000      3.400738000      0.817170000
H        0.457908000      3.189107000      0.994578000
H       -0.232548000      3.840524000     -0.501173000
C        2.264785000     -3.034978000     -0.362806000
C        2.412120000     -4.416961000     -0.368670000
C        2.159149000     -2.468401000      0.901701000
C        2.413537000     -5.203693000      0.768609000
C        2.150020000     -3.218515000      2.067620000
C        2.284033000     -4.591927000      2.001894000
C        3.910672000     -2.560139000     -2.340310000
C        4.990228000     -2.149798000     -1.565685000
C        4.254195000     -3.254340000     -3.490854000
C        6.312258000     -2.382643000     -1.895721000
C        5.567307000     -3.510739000     -3.859333000
C        6.603779000     -3.071290000     -3.060073000
F        2.581640000     -5.058064000     -1.537544000
F        2.537612000     -6.524491000      0.692382000
F        2.265397000     -5.319762000      3.110502000
F        2.017618000     -2.629955000      3.250864000
F        2.095384000     -1.149506000      1.071139000
F        3.325711000     -3.742249000     -4.325979000
F        5.834759000     -4.182727000     -4.974766000
F        7.862979000     -3.309324000     -3.401220000
F        7.298071000     -1.956166000     -1.114099000
F        4.764634000     -1.482991000     -0.427546000
P       -1.485044000     -3.297245000      0.385789000
C       -3.067640000     -2.893862000     -0.544134000
C       -2.775348000     -2.526250000     -2.000169000
C       -3.932637000     -1.812443000      0.101559000
H       -3.613651000     -3.843130000     -0.536557000
H       -2.348452000     -3.364288000     -2.548717000
H       -3.699992000     -2.231580000     -2.500913000
H       -2.079991000     -1.686412000     -2.059718000
H       -4.109609000     -1.981574000      1.162243000
H       -3.455873000     -0.834524000      0.002368000
H       -4.898842000     -1.766748000     -0.405703000
C       -2.084015000     -4.533048000      1.642068000
C       -3.445176000     -4.326034000      2.309732000
C       -0.984044000     -4.860840000      2.651668000
H       -2.192942000     -5.413381000      0.997300000
H       -4.243244000     -4.189777000      1.581359000
H       -3.684437000     -5.218135000      2.892665000
H       -3.466625000     -3.478923000      2.992414000
H       -0.123876000     -5.300734000      2.150361000
H       -0.641855000     -3.979870000      3.198326000
H       -1.349209000     -5.586738000      3.380158000
C        0.638072000     -3.752921000     -2.992397000
O        1.434065000     -2.825316000     -2.858819000
O       -0.072139000     -4.333280000     -2.103836000
H        0.486998000     -4.143420000     -4.000103000
H       -0.168238000     -3.899140000     -1.182283000
























