64

 H                  5.62398000    1.75816400    0.59903700
 C                  5.27008000    0.75420900    0.35730000
 N                  3.36618400   -0.79470000    0.55920200
 C                  4.75636800   -0.87120500   -1.47591700
 C                  3.33887900   -0.98000700   -0.93203500
 C                  5.28667300    0.53126100   -1.16343800
 H                  2.67667600   -0.21466900   -1.33339200
 H                  4.68429200    1.27311700   -1.68474200
 C                  6.17456600   -0.29957800    1.01793400
 H                  4.71400900   -1.02492400   -2.55472900
 H                  2.88061900   -1.95268500   -1.11417900
 H                  6.31292800    0.63101500   -1.52377200
 H                  6.20849300   -0.14577000    2.09951700
 H                  7.19493200   -0.19913200    0.64286400
 C                  5.64504100   -1.70462100    0.69515800
 H                  6.25433400   -2.45930800    1.19439300
 C                  5.64921400   -1.92923500   -0.82069900
 C                  4.21396000   -1.84037000    1.20609700
 H                  5.28668100   -2.93309500   -1.05587300
 H                  6.66744100   -1.84961200   -1.20665800
 H                  4.14993600   -1.68993600    2.28420600
 H                  3.77766800   -2.80906200    0.95913800
 C                 -2.18101600    1.21427900    0.18620100
 B                 -0.62542100   -0.82104300    0.71465200
 C                 -3.24251200   -1.06966900    0.68030900
 C                 -1.94992100   -1.54028400    1.37477100
 C                 -3.38211400    0.46556500    0.84245600
 C                 -2.17373000    0.82028500   -1.32256700
 C                 -2.00865200   -0.70273300   -1.51568100
 C                 -3.18921800   -1.42511700   -0.82504400
 C                 -0.67877900   -1.15135000   -0.88405800
 C                  3.86577500    0.60377500    0.94652200
 C                 -0.85656500    0.85186500    0.89119600
 C                  2.78100800    1.58108600    0.56707000
 C                  0.35595600    1.68272600    0.49262600
 C                  2.87159200    2.63159200   -0.33623300
 C                  0.45281900    2.76870500   -0.37711600
 C                  1.70074100    3.26410800   -0.73912000
 C                  1.53550700    1.23802900    1.06511000
 H                  1.75634500    4.11892700   -1.39989400
 H                 -0.43079500    3.22957100   -0.78828300
 H                  3.82645000    2.96660700   -0.71977400
 H                  1.47298100    0.51695700    1.86411500
 H                  3.93909400    0.56534700    2.03766100
 F                 -2.45420900    2.55297800    0.26325100
 F                 -3.49428500    0.78603200    2.13590600
 F                 -4.53008100    0.87459300    0.27166300
 F                 -3.30823000    1.24107600   -1.90310300
 F                 -4.34242500   -1.07611800   -1.42061400
 F                 -4.33843100   -1.66007500    1.22096000
 F                 -3.07869500   -2.75038200   -0.98897900
 F                 -2.04857500   -0.97306400   -2.84612400
 F                 -1.87850500   -2.90086900    1.27022600
 F                 -0.49496400   -2.46920000   -1.15875800
 F                  0.34861600   -0.52275600   -1.55804000
 F                 -1.18781000    1.44974900   -1.98949000
 F                 -1.01873400    1.12141200    2.26066600
 F                 -2.10406500   -1.31052600    2.71259500
 C                  0.70674800   -1.72786100    2.59349200
 H                  0.37168700   -0.91194900    3.24027600
 H                  0.10212500   -2.60942700    2.81003700
 H                  1.74974000   -1.96277500    2.83178500
 O                  0.63075900   -1.38087400    1.22290500
 H                  2.37281300   -0.91546500    0.86046400