61

 H                  5.54914700    1.97603000    0.30698300
 C                  5.31494900    0.93600000    0.07501400
 N                  3.72856000   -0.91188300    0.51965000
 C                  4.78124800   -0.71238000   -1.72127200
 C                  3.52677000   -1.09222100   -0.92904300
 C                  5.10255900    0.75946900   -1.43312900
 H                  2.67931200   -0.48502600   -1.25195600
 H                  4.28379800    1.39646600   -1.77953900
 C                  6.47731700    0.04626700    0.53831700
 H                  4.59290600   -0.85392700   -2.78770800
 H                  3.26012900   -2.13829700   -1.09860500
 H                  6.00434000    1.06461000   -1.97101700
 H                  6.65274100    0.18789400    1.60915200
 H                  7.39476100    0.33381100    0.01761700
 C                  6.14122700   -1.41972900    0.24575500
 H                  6.94162200   -2.07039500    0.60584000
 C                  5.94372900   -1.60089800   -1.26383100
 C                  4.83098100   -1.77323900    0.96120100
 H                  5.72492800   -2.64832700   -1.49148000
 H                  6.85979300   -1.33489000   -1.79886500
 H                  4.94476700   -1.66260400    2.04337100
 H                  4.55267800   -2.81079600    0.75874300
 C                 -1.94942200    1.23421800   -0.41965600
 B                 -1.15383000   -0.54041600    1.18018500
 C                 -3.62352800   -0.51958700    0.40799500
 C                 -2.70190800   -0.81360700    1.61407700
 C                 -3.43163600    0.95636900   -0.02708900
 C                 -1.56687200    0.27787700   -1.58344000
 C                 -1.78353100   -1.21678800   -1.21315300
 C                 -3.25418600   -1.44009900   -0.78271700
 C                 -0.83912500   -1.56223800   -0.05149000
 C                  4.04820600    0.49091400    0.83467900
 C                 -0.99111200    1.03133800    0.78988800
 C                  2.83390800    1.38992700    0.65559800
 C                  0.40629700    1.61027100    0.60905300
 C                  2.94411000    2.76853000    0.53990600
 C                  0.54285500    2.99608700    0.51977600
 C                  1.80415100    3.56104600    0.47269100
 C                  1.55526600    0.83324700    0.68138400
 H                  1.90410600    4.63578100    0.39385900
 H                 -0.33453700    3.62570200    0.50304900
 H                  3.91625200    3.24230900    0.51361400
 H                  1.51287700   -0.24619400    0.69534600
 H                  4.28764500    0.51162400    1.90570500
 F                 -1.89992800    2.50505700   -0.90226900
 F                 -3.84210400    1.77896500    0.94194200
 F                 -4.21722100    1.21964600   -1.08568300
 F                 -2.27806400    0.57340800   -2.67707700
 F                 -4.06449900   -1.20020400   -1.82333500
 F                 -4.92279500   -0.72152400    0.72608900
 F                 -3.44572100   -2.72350800   -0.44999600
 F                 -1.52486400   -1.98003100   -2.30049500
 F                 -2.88747300   -2.10646100    2.01953700
 F                 -1.01694800   -2.85805200    0.34320000
 F                  0.43619400   -1.54978300   -0.53125200
 F                 -0.27525200    0.47952500   -1.90683000
 F                 -1.51958000    1.79151600    1.83992800
 F                 -3.11358000   -0.06761800    2.66496600
 O                 -0.26250700   -0.89932600    2.40646900
 H                  0.64466900   -0.54253900    2.33808100
 H                 -0.24903900   -1.84857200    2.61414100

