63

 H                  5.59883200    2.10706300    0.32494500
 C                  5.44007900    1.03157400    0.21692700
 N                  3.82858900   -0.80357800    0.62839700
 C                  5.30641400   -0.89428200   -1.36880500
 C                  3.92141500   -1.19218700   -0.78630100
 C                  5.55181500    0.61413300   -1.25685600
 H                  3.15435700   -0.64943400   -1.34995200
 H                  4.82752600    1.14851900   -1.87486100
 C                  6.50039200    0.27197000    1.03010400
 H                  5.33480700   -1.20352500   -2.41586800
 H                  3.70400600   -2.26360400   -0.85358500
 H                  6.54768700    0.86421400   -1.63270700
 H                  6.45802300    0.58001400    2.07883900
 H                  7.49951300    0.51618700    0.65953000
 C                  6.25058300   -1.23741900    0.91188800
 H                  6.97396500   -1.78691500    1.51838900
 C                  6.35924000   -1.65790500   -0.55816200
 C                  4.83021900   -1.54611700    1.40312300
 H                  6.19866500   -2.73579400   -0.65367700
 H                  7.35993000   -1.44148700   -0.94203900
 H                  4.71813300   -1.27501200    2.45613200
 H                  4.61084600   -2.61321100    1.30750700
 C                 -2.18804100    1.44777400    0.14722800
 B                 -0.98854400   -0.72133500    0.62273500
 C                 -3.55826300   -0.61714400    0.84891600
 C                 -2.29250200   -1.24737000    1.43743900
 C                 -3.42911200    0.92466700    0.94291200
 C                 -2.37574000    1.00616200   -1.33765400
 C                 -2.47330700   -0.53545500   -1.46242000
 C                 -3.68843400   -1.03473100   -0.63936700
 C                 -1.16690000   -1.15695800   -0.92637200
 C                  4.06295800    0.64967300    0.78756200
 C                 -0.85448100    0.90908700    0.74921400
 C                  2.86603400    1.41927300    0.26215400
 C                  0.42760100    1.54090600    0.21011800
 C                  2.93381800    2.54068600   -0.55137200
 C                  0.51885400    2.67907400   -0.59114600
 C                  1.76284000    3.17062000   -0.95404300
 C                  1.61204800    0.97073500    0.65877600
 H                  1.81778800    4.05806700   -1.57084400
 H                 -0.36132500    3.19589500   -0.93470500
 H                  3.88903000    2.93900200   -0.86737800
 H                  1.58875000    0.16398800    1.37323300
 H                  4.09472100    0.82486600    1.86964600
 F                 -2.25573800    2.80645300    0.19901500
 F                 -3.36398700    1.29556200    2.22484400
 F                 -4.54153000    1.49316900    0.45212800
 F                 -3.47817600    1.57428900   -1.84362600
 F                 -4.81742300   -0.53002900   -1.15377400
 F                 -4.66786200   -1.01239800    1.51332700
 F                 -3.79164600   -2.36638200   -0.74003000
 F                 -2.66447700   -0.85774600   -2.76219900
 F                 -2.38548500   -2.61015300    1.38316900
 F                 -1.20038800   -2.50857700   -1.08461900
 F                 -0.13157900   -0.74679500   -1.72129300
 F                 -1.36223300    1.43672000   -2.10494800
 F                 -0.86214000    1.23973200    2.10872300
 F                 -2.21163900   -0.97778300    2.76931600
 C                  1.23762300   -2.24502700    0.58327600
 H                  1.44861200   -1.71171000   -0.34302300
 O                  1.69728000   -3.20800800    1.05814700
 O                  0.16790700   -1.57367600    1.27388800
 H                 -0.08961700   -2.08142800    2.06813800

