60

P    3.2425    14.2159     7.2251 
C    4.4779    15.4366     7.8077 
C    3.9354    16.4998     8.5251 
C    4.7033    17.5080     9.0690 
C    6.0799    17.4545     8.9262 
C    6.6595    16.3955     8.2528 
C    5.8608    15.4036     7.7066 
C    4.1895    12.9065     6.3511 
C    4.0612    11.6000     6.8069 
C    4.5970    10.5210     6.1241 
C    5.2908    10.7407     4.9473 
C    5.4442    12.0311     4.4640 
C    4.8968    13.0863     5.1680 
C    2.3681    14.9481     5.7867 
C    2.3141    16.2269     5.3593 
C    3.1253    17.4020     5.7352 
C    2.5100    18.5188     6.2999 
C    4.4944    17.4381     5.4735 
C    3.2604    19.6310     6.6493 
H    1.4449    18.4991     6.4954 
C    5.2383    18.5625     5.8003 
H    4.9692    16.5848     5.0089 
C    4.6266    19.6554     6.4003 
H    2.7782    20.4800     7.1154 
H    6.3003    18.5816     5.5895 
H    5.2113    20.5258     6.6682 
H    1.5456    16.4537     4.6204 
B    1.3773    13.9396     5.1448 
C    0.9561    12.6113     5.8835 
C    1.2606    11.3759     5.3328 
C    0.3022    12.6018     7.1062 
C    0.9570    10.1822     5.9599 
C   -0.0404    11.4285     7.7541 
C    0.2952    10.2142     7.1774 
C    0.8032    14.1678     3.7012 
C   -0.5528    14.0031     3.4390 
C    1.6052    14.4951     2.6128 
C   -1.0977    14.1712     2.1798 
C    1.0978    14.6509     1.3353 
C   -0.2621    14.4941     1.1228 
F   -0.0365    13.7546     7.6779 
F   -0.6781    11.4523     8.9145 
F   -0.0141     9.0852     7.7891 
F    1.2936     9.0213     5.4162 
F    1.9284    11.3213     4.1743 
F   -1.3866    13.7019     4.4338 
F   -2.3985    14.0297     1.9735 
F   -0.7625    14.6506    -0.0890 
F    1.8937    14.9426     0.3175 
F    2.9211    14.6240     2.7649 
F    5.0843    14.3084     4.6839 
F    3.3770    11.3357     7.9162 
F    4.4401     9.2881     6.5822 
F    5.8091     9.7238     4.2856 
F    6.1182    12.2386     3.3435 
F    6.4897    14.4201     7.0664 
F    7.9778    16.3432     8.1183 
F    6.8351    18.4179     9.4251 
F    4.1431    18.5184     9.7164 
F    2.6133    16.5739     8.6727 




















 
