66

P     3.8189    13.9266     6.8281 
C     4.5982    15.3554     7.6519 
C     3.8944    15.8554     8.7439 
C     4.3284    16.9378     9.4803 
C     5.5319    17.5379     9.1493 
C     6.2781    17.0448     8.0955 
C     5.8082    15.9683     7.3616 
C     4.9567    13.3809     5.5026 
C     5.4643    12.0902     5.5594 
C     6.2197    11.5450     4.5322 
C     6.4802    12.3059     3.4084 
C     5.9837    13.5993     3.3150 
C     5.2335    14.1120     4.3518 
C     2.3475    14.4651     5.8938 
C     1.7538    15.6631     5.9196 
C     2.1822    16.9614     6.4891 
C     1.3956    17.5463     7.4824 
C     3.3081    17.6441     6.0346 
C     1.7541    18.7610     8.0463 
H     0.5119    17.0252     7.8322 
C     3.6602    18.8669     6.5900 
H     3.9055    17.2141     5.2424 
C     2.8912    19.4244     7.6030 
H     1.1469    19.1897     8.8328 
H     4.5390    19.3860     6.2277 
H     3.1723    20.3739     8.0398 
H     0.7643    15.7164     5.4665 
B     1.5976    13.2089     5.1534 
C    -0.0219    13.3601     5.1691 
C    -0.8733    13.3669     4.0735 
C    -0.6539    13.5137     6.3999 
C    -2.2459    13.5494     4.1808 
C    -2.0145    13.6923     6.5539 
C    -2.8192    13.7169     5.4261 
C     2.2819    12.8935     3.7095 
C     2.2839    13.9088     2.7578 
C     2.9695    11.7500     3.3340 
C     2.9236    13.8196     1.5361 
C     3.6197    11.6142     2.1161 
C     3.6022    12.6563     1.2105 
F     0.0745    13.4682     7.5276 
F    -2.5556    13.8320     7.7575 
F    -4.1260    13.8852     5.5448 
F    -3.0114    13.5533     3.0981 
F    -0.4116    13.1812     2.8365 
F     1.6259    15.0428     3.0088 
F     2.8931    14.8274     0.6764 
F     4.2352    12.5501     0.0535 
F     4.2886    10.5007     1.8346 
F     3.0674    10.6873     4.1525 
F     4.7630    15.3463     4.2172 
F     5.2184    11.3103     6.6086 
F     6.6746    10.3045     4.6144 
F     7.1804    11.8004     2.4115 
F     6.2157    14.3131     2.2227 
F     6.5679    15.5636     6.3459 
F     7.4288    17.6213     7.7760 
F     5.9588    18.5855     9.8325 
F     3.6113    17.4045    10.4906 
F     2.7353    15.2942     9.0836 
C     1.0709    10.7623     6.1012 
H     0.7224    10.6152     5.0840 
H     1.6895     9.9239     6.4088 
H     0.2294    10.9110     6.7751 
O     1.8972    11.9404     6.0906 
H     2.2363    12.1899     6.9711 











 
