60

 N                  5.14000700   21.88086200    6.76310200
 B                  5.51081100   21.69284200    9.84628300
 C                  6.23120500   22.70164700    7.46536200
 H                  5.70017200   23.59481100    7.79103100
 C                  6.67682000   21.91593900    8.69363700
 H                  7.54484700   22.42151800    9.11859000
 H                  7.04464600   20.93751300    8.37066100
 C                  5.62293100   20.70714100    5.96888200
 H                  4.85194900   19.94198600    6.05221300
 H                  6.49992300   20.32386900    6.48471000
 C                  5.93842000   20.98750400    4.50831100
 H                  5.04651400   21.23371700    3.93333000
 H                  6.36047000   20.07868800    4.07946700
 H                  6.66723400   21.78571200    4.38171600
 C                  4.14835400   22.71934200    6.04035200
 H                  4.62619200   23.14373400    5.15796800
 H                  3.89400400   23.53292700    6.71860300
 C                  2.89919600   21.92874100    5.69675200
 H                  2.48168900   21.46997000    6.59464600
 H                  3.08810500   21.14477200    4.96500100
 H                  2.14942400   22.60087900    5.28181100
 C                  7.31178600   23.12101400    6.49784100
 C                  7.14116800   24.27167400    5.73156500
 H                  6.26424700   24.89015500    5.88745900
 C                  8.08497800   24.64334100    4.78475900
 H                  7.93788900   25.54126500    4.19893200
 C                  9.22252000   23.86957800    4.60124600
 H                  9.96191300   24.15637600    3.86507600
 C                  9.41967700   22.74009200    5.38424200
 H                 10.31672800   22.14694300    5.26308200
 C                  8.47357600   22.37253800    6.33021100
 H                  8.64514500   21.49879800    6.94573900
 C                  5.42936700   22.89004900   10.98950100
 C                  5.91375600   24.17727700   10.81500000
 F                  6.55260200   24.53196500    9.68355300
 C                  5.78682200   25.19188500   11.75160800
 F                  6.28127600   26.40425700   11.51143900
 C                  5.13341300   24.93979700   12.94074500
 F                  4.99558800   25.89608400   13.85057000
 C                  4.61923800   23.67602800   13.16712900
 F                  3.98389500   23.41747000   14.30620800
 C                  4.77399000   22.69844800   12.20082500
 F                  4.25134200   21.50049900   12.50215000
 C                  5.83040800   20.20229800   10.49342500
 C                  5.50141200   19.05870700    9.77877500
 F                  4.88834500   19.15958200    8.57882300
 C                  5.78420400   17.76938800   10.19395400
 F                  5.42807000   16.71907400    9.45651600
 C                  6.45959100   17.57904700   11.38479300
 F                  6.74894400   16.35351200   11.80539900
 C                  6.84327800   18.68359000   12.12165500
 F                  7.51343600   18.51500400   13.25719900
 C                  6.53246000   19.95444900   11.66360500
 F                  6.97001100   20.96579100   12.42339400
 C                  3.01857500   21.32890900    9.79682700
 H                  3.12680800   20.37433500   10.31973700
 H                  2.73753600   22.09207600   10.52817700
 H                  2.21245800   21.23848400    9.06658200
 O                  4.19913300   21.68521700    9.12410600
 H                  4.61434000   21.52806300    7.61876700

