58

N        5.089007000     21.951566000      7.193213000
B        6.120246000     21.371306000      9.998381000
C        6.347554000     22.661790000      7.796804000
H        5.908203000     23.438709000      8.420887000
C        7.086818000     21.696879000      8.711349000
H        8.030885000     22.157088000      8.994190000
H        7.352218000     20.783442000      8.167445000
C        5.357340000     21.223753000      5.906540000
H        4.623838000     20.416572000      5.863957000
H        6.335478000     20.759351000      6.025858000
C        5.294457000     22.025652000      4.616194000
H        4.299153000     22.422660000      4.424550000
H        5.533710000     21.341581000      3.801445000
H        6.009306000     22.843059000      4.583361000
C        3.998799000     22.973720000      7.058358000
H        4.377963000     23.733662000      6.376674000
H        3.894707000     23.417386000      8.047197000
C        2.651296000     22.442235000      6.594099000
H        2.725499000     21.755716000      5.751952000
H        2.046844000     23.290490000      6.273597000
H        2.113243000     21.946045000      7.398830000
C        7.176650000     23.344768000      6.737560000
C        6.914793000     24.669734000      6.399247000
H        6.142688000     25.213687000      6.931562000
C        7.641689000     25.307400000      5.403630000
H        7.425974000     26.337951000      5.153915000
C        8.653115000     24.626239000      4.741761000
H        9.222515000     25.119460000      3.965020000
C        8.953408000     23.318892000      5.103135000
H        9.763652000     22.794301000      4.613863000
C        8.226976000     22.687602000      6.101114000
H        8.486450000     21.678202000      6.394932000
C        6.099574000     22.516303000     11.173634000
C        6.763903000     23.731342000     11.171615000
F        7.536801000     24.099043000     10.132720000
C        6.680094000     24.655799000     12.201649000
F        7.342835000     25.808608000     12.137327000
C        5.891994000     24.377427000     13.300805000
F        5.795289000     25.250512000     14.296225000
C        5.197659000     23.181516000     13.349115000
F        4.429869000     22.908225000     14.399902000
C        5.311311000     22.290516000     12.296680000
F        4.610094000     21.157563000     12.400342000
C        6.552426000     19.923477000     10.644191000
C        5.794166000     18.764205000     10.662375000
F        4.566045000     18.728998000     10.121155000
C        6.236362000     17.573549000     11.219473000
F        5.465034000     16.488722000     11.205796000
C        7.492737000     17.511787000     11.790972000
F        7.932201000     16.378827000     12.326927000
C        8.291547000     18.641778000     11.792083000
F        9.505235000     18.593262000     12.334217000
C        7.809068000     19.804981000     11.220352000
F        8.626228000     20.869653000     11.240439000
C        4.642244000     20.867600000      8.218789000
O        4.709342000     21.358830000      9.461254000
H        5.304042000     20.016116000      8.027904000
H        3.626934000     20.594706000      7.932607000























