59

N        6.676373000     22.360543000      6.677907000
B        6.079306000     21.462191000      9.814299000
C        7.526188000     22.633681000      7.875971000
H        7.096632000     23.548021000      8.290339000
C        7.372388000     21.512165000      8.916324000
H        8.173399000     21.649652000      9.655946000
H        7.568103000     20.539802000      8.469669000
C        7.087751000     21.206261000      5.844977000
H        6.175613000     20.767946000      5.433234000
H        7.507190000     20.451289000      6.506013000
C        8.071006000     21.487066000      4.710255000
H        7.627008000     22.093953000      3.922356000
H        8.362346000     20.535494000      4.264058000
H        8.974603000     21.986042000      5.055889000
C        6.430244000     23.574765000      5.874806000
H        7.345624000     23.886263000      5.362823000
H        6.147045000     24.362118000      6.572241000
C        5.299911000     23.382150000      4.876160000
H        5.534077000     22.636046000      4.117504000
H        5.106913000     24.326161000      4.367302000
H        4.382080000     23.082535000      5.380774000
C        8.975773000     22.928624000      7.535188000
C        9.353806000     24.227364000      7.204955000
H        8.617978000     25.022117000      7.250623000
C       10.658174000     24.517640000      6.829711000
H       10.932609000     25.533894000      6.578233000
C       11.609340000     23.508429000      6.787881000
H       12.627627000     23.731449000      6.497595000
C       11.250548000     22.213752000      7.137902000
H       11.989701000     21.423237000      7.121949000
C        9.945710000     21.929050000      7.512894000
H        9.683850000     20.913526000      7.783305000
C        5.581496000     22.745140000     10.584788000
C        6.408020000     23.827031000     10.877670000
F        7.706459000     23.800768000     10.566940000
C        5.964712000     24.968876000     11.521594000
F        6.799002000     25.965570000     11.784008000
C        4.637058000     25.065250000     11.894445000
F        4.194956000     26.150858000     12.502134000
C        3.774108000     24.014876000     11.631403000
F        2.499451000     24.103979000     11.982877000
C        4.259019000     22.886459000     11.001847000
F        3.374524000     21.916392000     10.764236000
C        5.465490000     20.049769000     10.155192000
C        5.305680000     19.068957000      9.180336000
F        5.645427000     19.307913000      7.913341000
C        4.779012000     17.818526000      9.449137000
F        4.630268000     16.921191000      8.483253000
C        4.410568000     17.502100000     10.744938000
F        3.916006000     16.307732000     11.020903000
C        4.566936000     18.438894000     11.751899000
F        4.223857000     18.133945000     12.996030000
C        5.079985000     19.684409000     11.440997000
F        5.210932000     20.545068000     12.451266000
C        3.733422000     22.926040000      8.041074000
O        4.125922000     24.059542000      7.915819000
O        4.444821000     21.842237000      7.822857000
H        2.713358000     22.689467000      8.374672000
H        5.381632000     22.071777000      7.315302000























