47

B    4.2677     1.4052     5.4504 
C    2.3751     0.4198     5.6519 
C    1.0747    -0.0070     5.7061 
H    0.8545    -1.0279     5.9733 
C    0.0597     0.9392     5.4306 
C    0.4485     2.2755     5.1576 
H   -0.2911     3.0417     4.9879 
C    1.7766     2.6344     5.1168 
C    3.7510    -0.1152     5.9164 
H    3.8889    -0.3958     6.9592 
H    4.0354    -0.9501     5.2772 
C    2.2560     4.0341     4.9149 
H    2.6147     4.4325     5.8668 
H    3.0870     4.0549     4.2119 
H    1.4563     4.6731     4.5476 
C   -1.6240    -0.7770     5.7644 
H   -2.7036    -0.8715     5.6992 
H   -1.1757    -1.4820     5.0606 
H   -1.3145    -1.0529     6.7760 
C   -2.2759     1.5789     5.2002 
H   -2.1546     2.0357     4.2153 
H   -2.2601     2.3699     5.9548 
H   -3.2480     1.0965     5.2327 
C    5.0350     1.3242     4.0275 
C    6.2849     0.7180     4.0108 
C    7.0206     0.5045     2.8630 
C    6.4972     0.9052     1.6436 
C    5.2548     1.5046     1.6057 
C    4.5529     1.6984     2.7875 
C    4.9305     2.3676     6.5798 
C    6.0339     3.1915     6.4006 
C    6.5573     3.9970     7.4014 
C    5.9631     4.0112     8.6483 
C    4.8505     3.2209     8.8750 
C    4.3660     2.4299     7.8495 
F    6.8246     0.3189     5.1686 
F    8.2150    -0.0757     2.9092 
F    7.1835     0.7099     0.5248 
F    4.7389     1.8883     0.4410 
F    3.3493     2.2835     2.6620 
F    6.6575     3.2632     5.2209 
F    7.6186     4.7618     7.1695 
F    6.4477     4.7782     9.6150 
F    4.2616     3.2322    10.0671 
F    3.2755     1.7010     8.1329 
N    2.6950     1.6841     5.3227 
N   -1.2474     0.5872     5.4476 






















 
