50

B    4.5707     0.9381     4.1196 
C    2.2954     1.2270     5.0346 
C    1.4617     0.6524     5.9577 
H    1.2728    -0.4043     5.8613 
C    0.9002     1.4121     7.0023 
C    1.2452     2.7841     7.0462 
H    0.8791     3.4226     7.8332 
C    2.0675     3.3463     6.1099 
C    3.0159     0.4465     4.0021 
H    2.8466    -0.6142     4.1623 
H    2.6569     0.7058     3.0013 
C    2.4361     4.7935     6.2141 
H    3.5131     4.9296     6.1331 
H    1.9784     5.3686     5.4122 
H    2.0981     5.1693     7.1765 
C   -0.2091    -0.5599     7.8675 
H   -0.8788    -0.8109     8.6836 
H   -0.6985    -0.8213     6.9273 
H    0.6994    -1.1576     7.9686 
C   -0.4493     1.6703     9.0022 
H   -1.0431     2.4995     8.6129 
H    0.3475     2.0724     9.6320 
H   -1.0929     1.0506     9.6182 
C    5.6205     0.2933     3.0681 
C    5.3507    -0.7352     2.1823 
C    6.2932    -1.2468     1.3046 
C    7.5704    -0.7186     1.2966 
C    7.8890     0.3089     2.1675 
C    6.9176     0.7868     3.0282 
C    5.1008     0.7204     5.6585 
C    5.2495    -0.5784     6.1253 
C    5.6549    -0.8945     7.4094 
C    5.9259     0.1289     8.3011 
C    5.7832     1.4398     7.8886 
C    5.3776     1.7076     6.5898 
F    4.1354    -1.2982     2.1368 
F    5.9822    -2.2365     0.4721 
F    8.4853    -1.1946     0.4619 
F    9.1173     0.8169     2.1677 
F    7.2753     1.7690     3.8609 
F    4.9809    -1.6068     5.3084 
F    5.7777    -2.1596     7.7987 
F    6.3097    -0.1467     9.5414 
F    6.0284     2.4305     8.7417 
F    5.2502     3.0085     6.2793 
N    2.5766     2.5648     5.1101 
N    0.0903     0.8623     7.9208 
O    3.2429     4.2594     3.6864 
O    4.4785     2.4163     3.7639 
C    3.4958     3.1660     4.0894 



































 
