52

B        5.463410000      1.621194000      6.500344000
C        2.819739000      1.860422000      6.119858000
C        1.850536000      0.889678000      6.215498000
H        1.841593000      0.277520000      7.101762000
C        0.983852000      0.628270000      5.134354000
C        1.113943000      1.441200000      3.977792000
H        0.499767000      1.285190000      3.106018000
C        2.059968000      2.427397000      3.940523000
C        3.924646000      2.041350000      7.090590000
H        3.981262000      3.089096000      7.393693000
H        3.700560000      1.456342000      7.980562000
C        2.307578000      3.307892000      2.758804000
H        1.625820000      3.068401000      1.947224000
H        2.183733000      4.356315000      3.033067000
H        3.334839000      3.178896000      2.410309000
C        0.094316000     -1.292670000      6.311938000
H       -0.676284000     -2.042300000      6.162496000
H        1.060036000     -1.796013000      6.410918000
H       -0.123022000     -0.760448000      7.239298000
C       -0.686184000     -0.717263000      4.000362000
H       -0.042767000     -1.028173000      3.172094000
H       -1.291556000      0.131385000      3.678180000
H       -1.357124000     -1.535460000      4.242299000
C        5.277468000      0.829776000      5.074597000
C        4.485727000     -0.311668000      5.070017000
C        4.016137000     -0.927921000      3.928979000
C        4.385442000     -0.426387000      2.692298000
C        5.225889000      0.667095000      2.638627000
C        5.659193000      1.265640000      3.816683000
C        6.251412000      0.759140000      7.646444000
C        6.910794000     -0.447751000      7.472668000
C        7.580840000     -1.105249000      8.494260000
C        7.621276000     -0.545798000      9.756050000
C        6.992225000      0.666248000      9.977705000
C        6.333330000      1.283501000      8.930613000
F        4.107077000     -0.849310000      6.240612000
F        3.194922000     -1.976047000      4.003108000
F        3.936907000     -0.992111000      1.577192000
F        5.599738000      1.152655000      1.457145000
F        6.468757000      2.318590000      3.655638000
F        6.946077000     -1.053493000      6.279861000
F        8.190267000     -2.265748000      8.268105000
F        8.258968000     -1.160870000     10.744339000
F        7.029909000      1.220276000     11.186597000
F        5.750185000      2.458843000      9.207131000
N        2.861225000      2.621618000      5.004026000
N        0.092171000     -0.381052000      5.179291000
C        6.025047000      3.959407000      5.769490000
O        6.329949000      2.852672000      6.350668000
O        4.987124000      4.236845000      5.190678000
H        6.831735000      4.698853000      5.839778000
H        3.644818000      3.304713000      4.959924000

























































