54

P   -0.0665     0.4399    -0.5972 
C    1.7792     0.4528    -0.6505 
C    2.5174     1.6280    -0.4045 
B    1.8647     2.9787     0.0579 
C    2.4536    -0.6964    -1.0661 
C    3.8311    -0.6938    -1.2443 
C    4.5638     0.4520    -0.9815 
C    3.9040     1.5939    -0.5502 
O    2.5289     3.7203     0.9907 
O    0.6820     3.3753    -0.4866 
C   -0.4589     1.1321     1.0622 
C   -0.4014    -1.3437    -0.3053 
C   -0.1463    -1.9920     0.9032 
C   -0.4048    -3.3463     1.0440 
C   -0.9181    -4.0735    -0.0240 
C   -1.1763    -3.4397    -1.2297 
C   -0.9239    -2.0797    -1.3666 
H    0.2546    -1.4324     1.7398 
H   -0.2052    -3.8376     1.9878 
H   -1.1189    -5.1314     0.0874 
H   -1.5783    -4.0001    -2.0640 
H   -1.1265    -1.5830    -2.3081 
C   -1.7764     1.5474     1.2592 
C   -2.1746     2.1150     2.4613 
C   -1.2509     2.3009     3.4813 
C    0.0640     1.8943     3.2971 
C    0.4547     1.3026     2.1016 
H   -2.4944     1.4326     0.4549 
H   -3.2028     2.4258     2.5956 
H   -1.5542     2.7569     4.4150 
H    0.7904     2.0279     4.0891 
H    1.4829     0.9832     1.9793 
H    1.9024    -1.6081    -1.2584 
H    4.3279    -1.5970    -1.5758 
H    5.6391     0.4557    -1.1050 
H    4.4723     2.4883    -0.3235 
C    0.9627     5.5590     0.5636 
C    1.9290     4.8870     1.5358 
H    1.3951     4.5994     2.4483 
H    2.7350     5.5711     1.8100 
C   -0.0041     4.4807     0.0816 
H   -0.6733     4.8767    -0.6845 
H   -0.6116     4.1167     0.9190 
C    0.1841     6.6420     1.3003 
H    0.8607     7.4036     1.6935 
H   -0.5184     7.1360     0.6261 
H   -0.3818     6.2238     2.1356 
C    1.7237     6.1595    -0.6178 
H    1.0296     6.6188    -1.3241 
H    2.4169     6.9289    -0.2723 
H    2.2967     5.4037    -1.1560 
O    1.6542     1.8725    -3.6356 
O    0.7881    -0.2550    -3.8788 
C    1.2174     0.8108    -3.7456 





























 
