53

P    0.1472    -0.0100     0.0558 
C    1.9167     0.1570    -0.1534 
C    2.3950     1.3332    -0.7413 
B    1.3145     2.4888    -1.1865 
C    2.7506    -0.8982     0.2323 
C    4.1154    -0.7727     0.0476 
C    4.6227     0.3808    -0.5475 
C    3.7751     1.4042    -0.9422 
O    1.9242     3.7788    -1.4274 
O    0.3065     2.5088    -0.0621 
C   -0.5323     0.4585     1.6448 
C   -0.2158    -1.7795    -0.1329 
C   -0.8745    -2.5212     0.8420 
C   -1.1452    -3.8674     0.6259 
C   -0.7645    -4.4715    -0.5617 
C   -0.1087    -3.7330    -1.5407 
C    0.1673    -2.3936    -1.3273 
H   -1.1785    -2.0536     1.7698 
H   -1.6554    -4.4407     1.3886 
H   -0.9774    -5.5195    -0.7283 
H    0.1889    -4.2030    -2.4686 
H    0.6908    -1.8219    -2.0859 
C   -1.8120     0.9991     1.7206 
C   -2.3339     1.3483     2.9559 
C   -1.5791     1.1638     4.1083 
C   -0.3004     0.6315     4.0279 
C    0.2275     0.2760     2.7940 
H   -2.3831     1.1741     0.8174 
H   -3.3251     1.7773     3.0183 
H   -1.9865     1.4461     5.0702 
H    0.2922     0.5010     4.9236 
H    1.2336    -0.1214     2.7245 
H    2.3427    -1.8075     0.6592 
H    4.7791    -1.5716     0.3508 
H    5.6911     0.4725    -0.7033 
H    4.1757     2.2944    -1.4148 
C    1.2367     4.6072     0.7538 
C    2.3542     4.4614    -0.2860 
H    3.2000     3.9404     0.1955 
H    2.7089     5.4526    -0.5898 
C    0.7539     3.1924     1.0827 
H   -0.0679     3.2332     1.8085 
H    1.5876     2.6444     1.5565 
H   -0.5768     0.5833    -0.9712 
H    0.7311     2.0973    -2.1872 
C    1.7869     5.2571     2.0161 
H    2.1650     6.2590     1.8001 
H    1.0081     5.3513     2.7772 
H    2.6065     4.6711     2.4395 
C    0.0890     5.4328     0.1803 
H   -0.7313     5.5050     0.8995 
H    0.4271     6.4453    -0.0528 
H   -0.2874     4.9767    -0.7341 














 
