55

P    0.0323     0.3524     0.3424 
C    1.8727     0.2001     0.1830 
C    2.6595     1.3689     0.1304 
B    2.0681     2.8139     0.2979 
C    2.4900    -1.0383     0.0046 
C    3.8582    -1.1331    -0.2190 
C    4.6350     0.0141    -0.2748 
C    4.0307     1.2514    -0.1037 
O    2.6479     3.8351    -0.3935 
O    1.0141     3.0017     1.1346 
C   -0.2036     0.2772     2.1595 
C   -0.5076    -1.3372    -0.1425 
C   -0.6297    -2.4140     0.7353 
C   -1.0369    -3.6584     0.2731 
C   -1.3225    -3.8447    -1.0729 
C   -1.2108    -2.7782    -1.9545 
C   -0.8160    -1.5306    -1.4907 
H   -0.4044    -2.2797     1.7866 
H   -1.1295    -4.4847     0.9665 
H   -1.6399    -4.8156    -1.4312 
H   -1.4444    -2.9130    -3.0031 
H   -0.7482    -0.6933    -2.1780 
C   -1.5179     0.3289     2.6272 
C   -1.7909     0.2899     3.9855 
C   -0.7488     0.2166     4.9017 
C    0.5611     0.1789     4.4478 
C    0.8331     0.2054     3.0851 
H   -2.3352     0.3942     1.9168 
H   -2.8166     0.3234     4.3302 
H   -0.9585     0.1924     5.9633 
H    1.3785     0.1248     5.1557 
H    1.8603     0.1724     2.7442 
H    1.8994    -1.9452     0.0266 
H    4.3124    -2.1072    -0.3521 
H    5.7001    -0.0541    -0.4558 
H    4.6265     2.1543    -0.1658 
C    0.5731     5.0841    -0.0624 
C    2.0813     5.1354    -0.2993 
H    2.5703     5.6776     0.5172 
H    2.3036     5.6528    -1.2345 
C    0.3477     4.2545     1.1990 
H   -0.7156     4.0465     1.3388 
H    0.7104     4.7948     2.0789 
C    0.0506     6.4980     0.1625 
H    0.1993     7.1090    -0.7300 
H   -1.0192     6.4812     0.3797 
H    0.5594     6.9842     0.9976 
C   -0.1344     4.4398    -1.2556 
H   -1.2131     4.4262    -1.0895 
H    0.0639     5.0074    -2.1668 
H    0.1850     3.4105    -1.4271 
C    1.8869     0.1157    -2.8747 
O    1.0052     0.8906    -3.1172 
H    1.7130    -0.9755    -2.8740 
H    2.9107     0.4493    -2.6348 


























 
