68

C       12.331562000      5.834571000      7.141905000
C       13.602989000      5.519839000      6.820693000
C       10.989765000      4.494159000      4.859639000
C       10.822203000      4.589334000      3.480957000
H       10.743792000      5.561443000      3.008343000
C       10.819656000      3.430711000      2.720263000
H       10.710016000      3.496163000      1.646002000
C       10.980003000      2.192425000      3.331329000
H       10.992715000      1.292747000      2.729405000
C       11.142556000      2.103728000      4.706942000
H       11.296795000      1.142060000      5.178749000
C       11.155365000      3.257397000      5.476722000
H       11.349443000      3.192136000      6.541326000
C        9.454330000      6.136731000      6.708020000
C        8.721612000      5.038594000      7.151795000
H        9.078019000      4.032795000      6.969254000
C        7.520415000      5.232272000      7.816211000
H        6.951825000      4.377240000      8.156761000
C        7.044630000      6.518217000      8.036791000
H        6.104800000      6.664770000      8.552695000
C        7.765995000      7.615022000      7.587037000
H        7.391519000      8.617214000      7.747021000
C        8.967841000      7.425609000      6.921521000
H        9.524685000      8.285141000      6.565327000
C       11.794581000      5.964687000      8.549406000
H       12.612618000      6.043977000      9.261075000
H       11.176713000      5.108851000      8.830530000
H       11.173573000      6.855195000      8.651574000
C       14.474860000      5.102492000      7.968267000
F       13.022915000      3.295245000      8.459986000
C       14.160779000      3.949636000      8.691218000
F       14.625313000      2.336714000     10.335906000
C       14.962441000      3.450365000      9.699829000
F       16.881101000      3.673332000     11.034517000
C       16.108954000      4.133578000     10.064535000
F       17.466119000      6.028079000      9.818728000
C       16.411592000      5.323713000      9.432984000
F       15.881785000      7.010762000      7.957037000
C       15.592890000      5.797973000      8.419525000
C       15.613121000      6.470080000      5.269270000
F       14.422043000      8.493938000      5.550261000
C       15.589995000      7.855135000      5.372686000
F       16.627310000      9.971354000      5.458323000
C       16.719751000      8.650018000      5.357322000
F       19.063094000      8.790058000      5.259813000
C       17.963689000      8.051007000      5.266006000
F       19.235387000      6.087084000      5.126975000
C       18.046191000      6.673862000      5.196427000
F       17.057057000      4.590841000      5.163614000
C       16.883839000      5.917498000      5.201809000
C       14.437866000      4.161550000      4.481542000
F       14.925249000      5.390906000      2.521076000
C       14.741110000      4.207258000      3.124746000
F       15.170767000      3.215454000      1.028162000
C       14.887264000      3.092525000      2.320480000
F       14.849778000      0.747686000      2.124278000
C       14.734860000      1.834764000      2.875873000
F       14.266968000      0.532551000      4.771164000
C       14.447095000      1.731171000      4.220816000
F       14.027232000      2.681697000      6.275337000
C       14.313061000      2.880854000      4.983078000
B       14.228930000      5.591533000      5.277425000
P       11.044514000      5.972157000      5.866731000
C       13.160864000      7.202583000      3.568873000
O       13.138613000      6.288843000      4.515587000
O       12.143341000      7.637506000      3.092686000
H       14.156023000      7.530236000      3.250743000
H       11.054266000      7.110758000      5.066722000

































































