54

B        5.226744000      1.319568000      5.454967000
C        1.385553000      0.338937000      5.133821000
C        0.233334000     -0.101531000      5.765847000
H       -0.174903000     -1.067845000      5.504143000
C       -0.366678000      0.700424000      6.721893000
C        0.180674000      1.934411000      7.032606000
H       -0.265750000      2.578005000      7.777293000
C        1.330346000      2.345617000      6.380664000
C        1.980251000      3.666101000      6.642944000
H        2.042651000      3.845786000      7.715900000
H        2.984518000      3.699807000      6.225604000
H        1.388378000      4.467034000      6.196222000
C        6.581772000      0.941504000      4.591907000
C        7.770972000      0.640736000      5.243283000
C        8.923409000      0.223355000      4.603639000
C        8.918525000      0.074623000      3.228063000
C        7.756807000      0.338510000      2.531286000
C        6.625385000      0.751787000      3.219367000
C        5.551750000      2.426843000      6.662243000
C        6.537821000      3.402450000      6.558836000
C        6.797118000      4.358381000      7.527596000
C        6.028634000      4.388191000      8.676107000
C        5.014318000      3.462806000      8.820891000
C        4.803236000      2.520555000      7.827146000
F        7.847011000      0.752716000      6.577839000
F       10.031344000     -0.038289000      5.291222000
F       10.011835000     -0.327018000      2.590103000
F        7.727210000      0.180458000      1.209619000
F        5.532144000      0.942866000      2.456966000
F        7.305904000      3.479534000      5.464116000
F        7.763222000      5.255469000      7.359124000
F        6.247921000      5.301643000      9.613002000
F        4.232454000      3.497188000      9.900174000
F        3.755782000      1.702480000      8.047920000
N        1.883889000      1.540813000      5.462618000
H       -1.263028000      0.363691000      7.226781000
C        2.101914000     -0.485811000      4.107727000
H        2.721976000      0.158421000      3.481721000
H        1.334234000     -0.929384000      3.471495000
C        2.975887000     -1.610420000      4.708988000
H        2.518107000     -1.973157000      5.634340000
H        2.962507000     -2.445298000      4.005888000
C        4.427390000     -1.202830000      4.957223000
H        4.971711000     -2.104054000      5.247622000
H        4.845747000     -0.905795000      3.992574000
C        4.631743000     -0.095273000      6.015326000
H        3.702452000      0.034956000      6.572105000
H        5.345456000     -0.449660000      6.765173000
O        4.186895000      1.968549000      4.563999000
H        2.907110000      1.806721000      5.025774000
C        4.480900000      3.201497000      3.941724000
H        5.402049000      3.130419000      3.363797000
H        3.661729000      3.454835000      3.266870000
H        4.601868000      4.002640000      4.678525000































 
