51

B     5.6487     1.2719     5.9688 
C     1.7276     0.2096     5.5491 
C     0.5427    -0.1870     6.1490 
H     0.1988    -1.2033     6.0157 
C    -0.1780     0.7266     6.8995 
C     0.2758     2.0294     7.0309 
H    -0.2752     2.7634     7.6014 
C     1.4653     2.3938     6.4250 
C     2.0217     3.7804     6.4895 
H     1.9855     4.1518     7.5126 
H     3.0538     3.8032     6.1459 
H     1.4242     4.4444     5.8622 
C     6.9663     0.9914     5.0110 
C     7.8505    -0.0596     5.2064 
C     8.9487    -0.3059     4.3976 
C     9.2129     0.5312     3.3308 
C     8.3757     1.6067     3.1004 
C     7.2953     1.8063     3.9393 
C     6.0009     2.3914     7.1527 
C     7.2117     3.0450     7.3485 
C     7.4298     3.9915     8.3412 
C     6.4060     4.3332     9.2016 
C     5.1800     3.7115     9.0559 
C     5.0173     2.7675     8.0593 
F     7.6929    -0.9042     6.2341 
F     9.7523    -1.3380     4.6385 
F    10.2581     0.3109     2.5426 
F     8.6232     2.4370     2.0907 
F     6.5625     2.9160     3.6800 
F     8.2713     2.7997     6.5691 
F     8.6154     4.5793     8.4666 
F     6.5926     5.2411    10.1514 
F     4.1721     4.0248     9.8712 
F     3.7913     2.2058     8.0056 
N     2.1441     1.4734     5.7246 
H    -1.1022     0.4260     7.3763 
C     2.5417    -0.7069     4.6858 
H     3.1767    -0.1105     4.0293 
H     1.8280    -1.2411     4.0559 
C     3.4146    -1.7338     5.4438 
H     2.9481    -1.9780     6.4029 
H     3.4180    -2.6534     4.8557 
C     4.8575    -1.2794     5.6576 
H     5.4245    -2.1385     6.0195 
H     5.2764    -1.0449     4.6727 
C     5.0374    -0.0883     6.6221 
H     4.0711     0.1471     7.0770 
H     5.6645    -0.3984     7.4593 
O     4.5519     1.8525     5.0844 
H     4.8697     2.5499     4.5047 
H     3.1815     1.7148     5.3790 




























 
