24

C   6.0021    14.4286     8.5468 
C   5.5244    13.8724     9.7358 
H   4.8262    13.0474     9.6690 
C   5.9156    14.3426    10.9813 
H   5.5225    13.8842    11.8796 
C   6.8100    15.3991    11.0812 
H   7.1199    15.7708    12.0484 
C   7.3082    15.9805     9.9254 
H   8.0070    16.8059     9.9919 
C   6.8943    15.4837     8.7017 
N   7.4345    16.1145     7.4719 
C   7.0152    17.5338     7.3316 
H   5.9313    17.5663     7.3914 
H   7.3494    17.8977     6.3623 
H   7.4669    18.1153     8.1310 
C   8.9050    15.9397     7.3433 
H   9.3964    16.4915     8.1404 
H   9.2137    16.3210     6.3721 
H   9.1199    14.8777     7.4152 
B   5.5272    13.8542     7.1190 
Cl  4.7279    15.2768     6.1260 
Cl  7.0742    13.2929     6.1484 
H   7.0046    15.5994     6.6888 
H   4.7603    12.9479     7.1979 






