41

C    14.2488     6.7322    10.5111 
C    13.9361     7.7911    11.3752 
H    13.7501     8.7727    10.9583 
C    13.8643     7.6190    12.7465 
H    13.6434     8.4598    13.3904 
C    14.0502     6.3526    13.2774 
H    13.9654     6.1900    14.3446 
C    14.3294     5.2835    12.4390 
H    14.4391     4.2953    12.8603 
C    14.4638     5.4505    11.0597 
N    14.7876     4.3521    10.2102 
C    16.1392     3.7556    10.3975 
C    16.4781     2.9668     9.1258 
H    16.5814     3.6787     8.3020 
H    17.4471     2.4828     9.2655 
C    15.4060     1.9513     8.7671 
H    15.3095     1.1987     9.5545 
H    15.6848     1.4137     7.8589 
C    14.0907     2.6815     8.5514 
H    13.2892     1.9825     8.3002 
H    14.2090     3.3633     7.7035 
C    13.6455     3.5094     9.7643 
C    12.4931     4.4042     9.2971 
H    12.8121     5.0742     8.4972 
H    12.0709     4.9963    10.1096 
H    11.7005     3.7723     8.8943 
C    13.0716     2.5849    10.8546 
H    12.8237     3.1512    11.7530 
H    13.7484     1.7790    11.1271 
H    12.1500     2.1260    10.4917 
C    16.3248     2.8398    11.6257 
H    16.2587     3.4037    12.5547 
H    17.3266     2.4064    11.5893 
H    15.6145     2.0191    11.6684 
C    17.1663     4.8833    10.5375 
H    17.0994     5.5793     9.7040 
H    18.1678     4.4499    10.5485 
H    17.0326     5.4384    11.4667 
B    14.2812     7.0584     8.9907 
Cl   15.4007     6.4137     7.8065 
Cl   13.1381     8.2472     8.3619 



 
