47

C    14.3912     6.6202    10.3718 
C    14.6716     7.7402    11.1644 
H    14.6889     8.7097    10.6815 
C    14.9223     7.6437    12.5199 
H    15.1354     8.5347    13.0964 
C    14.9006     6.4011    13.1428 
H    15.0950     6.3118    14.2035 
C    14.6275     5.2695    12.3964 
H    14.6101     4.3041    12.8786 
C    14.3787     5.3935    11.0319 
N    14.0874     4.1915    10.2222 
C    15.3017     3.2746     9.9671 
C    14.8859     2.3208     8.8420 
H    14.7776     2.9045     7.9213 
H    15.7080     1.6218     8.6797 
C    13.5833     1.5842     9.1192 
H    13.6804     0.9418     9.9977 
H    13.3484     0.9270     8.2811 
C    12.4592     2.5923     9.3092 
H    11.5060     2.0922     9.4886 
H    12.3444     3.1767     8.3898 
C    12.6985     3.5667    10.4681 
C    11.6778     4.7025    10.3863 
H    10.6811     4.2596    10.3863 
H    11.7953     5.2923     9.4769 
H    11.7549     5.3742    11.2406 
C    12.5370     2.8735    11.8163 
H    12.6678     3.5681    12.6425 
H    13.1892     2.0177    11.9594 
H    11.5092     2.5106    11.8636 
C    15.7940     2.5061    11.1884 
H    16.1193     3.1762    11.9803 
H    16.6696     1.9379    10.8711 
H    15.0763     1.7967    11.5887 
C    16.4389     4.1689     9.4713 
H    16.1238     4.8106     8.6481 
H    17.2450     3.5238     9.1196 
H    16.8286     4.8023    10.2674 
B    14.1140     6.8744     8.7889 
Cl   15.6387     7.7029     8.0369 
Cl   12.6381     8.0431     8.6174 
C    13.5655     5.6420     6.7085 
H    12.6734     6.2357     6.5016 
H    14.4095     6.0609     6.1577 
H    13.3992     4.6114     6.3913 
H    13.9488     4.6083     9.2597 
O    13.8394     5.6353     8.0937 















 
