45

C    14.3077     6.5306    10.6517 
C    13.9454     7.7127    11.3294 
H    13.8977     8.6342    10.7632 
C    13.6479     7.7612    12.6753 
H    13.3764     8.7024    13.1352 
C    13.7023     6.5948    13.4226 
H    13.4750     6.5988    14.4809 
C    14.0532     5.4184    12.7925 
H    14.0964     4.5100    13.3729 
C    14.3567     5.3591    11.4242 
N    14.7108     4.0711    10.8657 
C    16.0694     3.5762    11.2567 
C    16.4070     2.3379    10.4105 
H    16.5819     2.6412     9.3720 
H    17.3534     1.9290    10.7687 
C    15.3107     1.2854    10.4331 
H    15.1641     0.9075    11.4480 
H    15.5970     0.4288     9.8206 
C    14.0266     1.9038     9.9050 
H    13.2150     1.1743     9.8897 
H    14.1834     2.2041     8.8628 
C    13.5633     3.1187    10.7253 
C    12.4536     3.8292     9.9426 
H    12.8113     4.2323     8.9925 
H    12.0306     4.6588    10.5084 
H    11.6543     3.1191     9.7252 
C    12.9261     2.6117    12.0329 
H    12.4463     3.4214    12.5785 
H    13.6357     2.1185    12.6936 
H    12.1498     1.8863    11.7823 
C    16.2713     3.2245    12.7427 
H    16.1909     4.1081    13.3721 
H    17.2797     2.8267    12.8713 
H    15.5730     2.4734    13.1055 
C    17.0850     4.6746    10.9235 
H    17.0174     4.9981     9.8824 
H    18.0943     4.2956    11.0914 
H    16.9420     5.5567    11.5471 
B    14.5783     6.9032     9.0957 
Cl   16.0062     8.0717     8.9543 
Cl   13.0326     7.5478     8.3090 
C    15.2047     4.6654     8.0319 
O    15.0052     5.8667     7.9676 
H    15.0873     4.1599     9.0002 
H    15.4929     4.1670     7.1022 









