84

B     0.7121     4.4175     9.8750 
C     3.8904     4.8118     9.4523 
C     3.2111     4.9349    10.6985 
C     1.7928     4.9424    10.8996 
C     1.3353     5.2182    12.1753 
H     0.2625     5.2607    12.3361 
C     2.1788     5.3844    13.3057 
H     1.7395     5.5764    14.2771 
C     3.5275     5.2687    13.1367 
C     4.0240     5.0527    11.8347 
C     5.4243     4.9525    11.8119 
C     6.0526     4.7331    10.6138 
H     7.1278     4.6233    10.5445 
C     5.2667     4.6837     9.4412 
H     5.7678     4.5555     8.4875 
C     0.8257     2.9725     9.2208 
C     1.3718     1.8680     9.9080 
C     1.4217     0.6153     9.2948 
H     1.8382    -0.2205     9.8476 
C     0.9690     0.4075     8.0035 
C     0.4132     1.4902     7.3336 
H     0.0465     1.3516     6.3215 
C     0.3114     2.7440     7.9192 
C     1.8956     1.9386    11.3241 
H     2.0359     0.9318    11.7159 
H     1.2186     2.4693    11.9923 
H     2.8573     2.4534    11.3772 
C     1.0920    -0.9291     7.3290 
H     1.8286    -0.8785     6.5232 
H     0.1437    -1.2355     6.8851 
H     1.4082    -1.7002     8.0307 
C    -0.3661     3.8217     7.1096 
H    -0.4175     3.5260     6.0618 
H     0.1559     4.7763     7.1753 
H    -1.3848     3.9939     7.4652 
C    -0.6543     5.2114     9.8099 
C    -0.7261     6.5646     9.4322 
C    -1.9561     7.2181     9.4045 
H    -1.9900     8.2592     9.1002 
C    -3.1327     6.5825     9.7685 
C    -3.0532     5.2569    10.1780 
H    -3.9570     4.7480    10.4980 
C    -1.8484     4.5652    10.1962 
C     0.4871     7.3422     8.9934 
H     0.7506     7.1021     7.9606 
H     1.3611     7.1204     9.6058 
H     0.2946     8.4135     9.0441 
C    -4.4554     7.2953     9.7186 
H    -4.3206     8.3763     9.6978 
H    -5.0720     7.0415    10.5814 
H    -5.0132     7.0115     8.8233 
C    -1.8717     3.1277    10.6608 
H    -2.8143     2.9092    11.1616 
H    -1.0614     2.9092    11.3585 
H    -1.7615     2.4354     9.8236 
P     2.8847     4.9646     7.9429 
C     3.5360     6.4545     7.0886 
C     2.7920     6.9058     5.9934 
C     4.6329     7.2096     7.4973 
C     3.1647     8.0429     5.2939 
H     1.8988     6.3663     5.6950 
C     4.9973     8.3590     6.8071 
H     5.2036     6.9139     8.3666 
C     4.2741     8.7731     5.6990 
H     2.5785     8.3684     4.4442 
H     5.8519     8.9333     7.1415 
H     4.5622     9.6680     5.1630 
C     3.4699     3.5686     6.9105 
C     3.7910     2.3567     7.5228 
C     3.4376     3.6235     5.5168 
C     4.0637     1.2297     6.7627 
H     3.8128     2.2860     8.6025 
C     3.7172     2.4962     4.7576 
H     3.2020     4.5515     5.0127 
C     4.0255     1.2929     5.3771 
H     4.2993     0.2971     7.2609 
H     3.6937     2.5607     3.6771 
H     4.2390     0.4132     4.7834 
C     4.6919     5.3517    14.0981 
H     4.6006     4.6150    14.8970 
H     4.7315     6.3324    14.5745 
C     5.9533     5.0972    13.2209 
H     6.4781     4.1919    13.5298 
H     6.6690     5.9172    13.2924 












 
