87

B    0.5766     5.3627    10.5356 
C    3.6572     4.4347     9.7730 
C    3.2720     5.0963    10.9848 
C    1.9967     5.6567    11.3206 
C    1.9345     6.2926    12.5526 
H    0.9896     6.7330    12.8447 
C    2.9827     6.3547    13.5012 
H    2.8215     6.8685    14.4414 
C    4.1489     5.7030    13.2299 
C    4.2733     5.0746    11.9772 
C    5.4822     4.3578    11.8842 
C    5.7497     3.6275    10.7585 
H    6.6449     3.0280    10.6572 
C    4.8340     3.7110     9.6910 
H    5.0860     3.2152     8.7601 
C    0.2542     3.7610    10.2285 
C    0.8759     2.6435    10.8352 
C    0.5804     1.3435    10.4172 
H    1.0935     0.5163    10.8992 
C   -0.3620     1.0693     9.4413 
C   -1.0437     2.1519     8.9078 
H   -1.8307     1.9740     8.1815 
C   -0.7667     3.4664     9.2816 
C    1.8240     2.6956    12.0183 
H    1.6026     1.8559    12.6785 
H    1.7423     3.6056    12.6040 
H    2.8660     2.5903    11.7041 
C   -0.6827    -0.3429     9.0336 
H   -1.0935    -0.3783     8.0241 
H   -1.4241    -0.7826     9.7046 
H    0.2052    -0.9757     9.0692 
C   -1.6678     4.5101     8.6535 
H   -2.6304     4.0539     8.4215 
H   -1.2548     4.8970     7.7204 
H   -1.8417     5.3584     9.3092 
C   -0.6472     6.1956    11.2450 
C   -0.7998     7.5802    11.0047 
C   -1.8729     8.2850    11.5467 
H   -1.9592     9.3470    11.3373 
C   -2.8199     7.6803    12.3572 
C   -2.6301     6.3414    12.6584 
H   -3.3225     5.8511    13.3357 
C   -1.5694     5.6045    12.1340 
C    0.1840     8.4014    10.1996 
H   -0.0293     8.3472     9.1315 
H    1.2102     8.0653    10.3427 
H    0.1228     9.4465    10.5044 
C   -3.9975     8.4462    12.8935 
H   -3.7560     9.5014    13.0234 
H   -4.3236     8.0472    13.8544 
H   -4.8453     8.3849    12.2070 
C   -1.4601     4.1737    12.6096 
H   -2.0811     4.0318    13.4943 
H   -0.4357     3.9154    12.8758 
H   -1.7849     3.4594    11.8515 
P    2.9492     4.8261     8.1858 
C    3.9661     6.1482     7.4793 
C    3.6963     6.6085     6.1875 
C    4.9908     6.7267     8.2246 
C    4.4608     7.6297     5.6491 
H    2.8838     6.1754     5.6189 
C    5.7456     7.7560     7.6780 
H    5.1990     6.3834     9.2296 
C    5.4848     8.2041     6.3927 
H    4.2508     7.9833     4.6484 
H    6.5363     8.2069     8.2627 
H    6.0756     9.0060     5.9692 
C    3.0200     3.3972     7.1025 
C    2.1176     2.3667     7.3571 
C    3.9548     3.2839     6.0776 
C    2.1478     1.2240     6.5749 
H    1.3958     2.4564     8.1588 
C    3.9793     2.1335     5.3018 
H    4.6578     4.0840     5.8836 
C    3.0768     1.1079     5.5486 
H    1.4405     0.4288     6.7727 
H    4.7029     2.0408     4.5029 
H    3.0977     0.2149     4.9373 
C    5.4083     5.4845    14.0345 
H    5.1923     5.0728    15.0204 
H    5.9327     6.4286    14.1918 
C    6.2563     4.5099    13.1715 
H    6.3651     3.5393    13.6586 
H    7.2633     4.8863    12.9887 
O    0.8925     5.6779     6.8925 
O    0.6223     5.9891     9.0811 
C    1.2132     5.5681     8.0506 

























 
