89

B        0.360953000      4.572085000      9.828540000
C        3.724752000      3.901648000      9.188364000
C        3.083217000      4.343275000     10.417176000
C        1.774937000      4.889468000     10.648065000
C        1.626156000      5.554744000     11.862702000
H        0.691118000      6.071398000     12.034067000
C        2.550143000      5.545448000     12.927543000
H        2.323628000      6.080091000     13.842212000
C        3.666188000      4.768812000     12.801481000
C        3.919379000      4.187673000     11.545844000
C        5.099450000      3.412933000     11.578472000
C        5.546015000      2.813731000     10.436367000
H        6.424628000      2.182825000     10.414580000
C        4.885368000      3.144734000      9.234789000
H        5.350976000      2.835763000      8.308204000
C       -0.494732000      3.216964000     10.291993000
C       -0.111294000      2.227142000     11.220788000
C       -0.967021000      1.173512000     11.546183000
H       -0.639201000      0.441153000     12.277142000
C       -2.208818000      1.017145000     10.955299000
C       -2.560885000      1.940867000      9.985078000
H       -3.509971000      1.827231000      9.469629000
C       -1.742354000      3.016216000      9.647488000
C        1.239312000      2.189550000     11.899096000
H        1.294831000      1.327616000     12.563677000
H        1.444203000      3.080924000     12.490419000
H        2.043708000      2.090295000     11.167964000
C       -3.132604000     -0.103391000     11.344679000
H       -3.706987000     -0.456174000     10.487538000
H       -3.845672000      0.226748000     12.103794000
H       -2.578232000     -0.946513000     11.757305000
C       -2.308770000      3.926719000      8.575100000
H       -2.957561000      3.348713000      7.915939000
H       -1.549878000      4.411390000      7.967801000
H       -2.910416000      4.723051000      9.020027000
C       -0.604121000      5.910360000      9.927662000
C       -0.471513000      6.980861000      9.018338000
C       -1.350316000      8.059951000      9.028516000
H       -1.215686000      8.854562000      8.300561000
C       -2.373678000      8.161720000      9.957794000
C       -2.448541000      7.167317000     10.918250000
H       -3.198643000      7.247789000     11.699411000
C       -1.592722000      6.064541000     10.926010000
C        0.662488000      7.050648000      8.025828000
H        0.497435000      6.405571000      7.160647000
H        1.589203000      6.738560000      8.507192000
H        0.794866000      8.075760000      7.676592000
C       -3.346133000      9.308317000      9.932936000
H       -2.871909000     10.220901000      9.570067000
H       -3.751121000      9.503496000     10.926126000
H       -4.187598000      9.090288000      9.270936000
C       -1.812371000      5.098413000     12.073733000
H       -2.229428000      5.639345000     12.924634000
H       -0.898625000      4.606389000     12.399215000
H       -2.513622000      4.304841000     11.806140000
P        3.595744000      4.828818000      7.660817000
C        4.213042000      6.487608000      7.989776000
C        3.888672000      7.498260000      7.086015000
C        5.031349000      6.757962000      9.081687000
C        4.385223000      8.776722000      7.275082000
H        3.234805000      7.288741000      6.246735000
C        5.524188000      8.042744000      9.266145000
H        5.274641000      5.974757000      9.789537000
C        5.203052000      9.047810000      8.365785000
H        4.126638000      9.563374000      6.579031000
H        6.153249000      8.258071000     10.119464000
H        5.583627000     10.049497000      8.517330000
C        4.646475000      4.131513000      6.372160000
C        4.182837000      3.062550000      5.604395000
C        5.922380000      4.652583000      6.157427000
C        5.005805000      2.523038000      4.626023000
H        3.189772000      2.665795000      5.772718000
C        6.734904000      4.103383000      5.177931000
H        6.279000000      5.486689000      6.748760000
C        6.276629000      3.038879000      4.413221000
H        4.646669000      1.697340000      4.026270000
H        7.723595000      4.509488000      5.010587000
H        6.911247000      2.613300000      3.646611000
C        4.775976000      4.414892000     13.762324000
H        4.392299000      4.003990000     14.695982000
H        5.357651000      5.302271000     14.019812000
C        5.643142000      3.389102000     12.985359000
H        5.529940000      2.386179000     13.401981000
H        6.706604000      3.626907000     13.014205000
C        0.899170000      3.125457000      7.837189000
O        0.738854000      4.302345000      8.357299000
O        1.331977000      2.968372000      6.709411000
H        0.641013000      2.272245000      8.476352000
H        2.329358000      4.988020000      7.115674000













































