86

B    0.8432     4.6619     9.8863 
C    4.0445     4.3643     9.6895 
C    3.3386     4.8167    10.8663 
C    1.9316     5.0020    11.0420 
C    1.5274     5.4976    12.2723 
H    0.4663     5.6735    12.4132 
C    2.3829     5.7670    13.3636 
H    1.9693     6.1426    14.2924 
C    3.7184     5.5260    13.2212 
C    4.1785     5.0573    11.9761 
C    5.5704     4.8469    11.9982 
C    6.1971     4.3771    10.8789 
H    7.2613     4.1829    10.8492 
C    5.4146     4.1531     9.7297 
H    5.9272     3.8015     8.8447 
C    0.6645     3.0786     9.4758 
C    1.2098     1.9611    10.1402 
C    1.1623     0.6866     9.5615 
H    1.5964    -0.1476    10.1050 
C    0.5694     0.4478     8.3344 
C   -0.0121     1.5345     7.6909 
H   -0.5089     1.3793     6.7375 
C    0.0218     2.8145     8.2346 
C    1.8544     2.0252    11.5079 
H    1.7792     1.0522    11.9944 
H    1.3896     2.7654    12.1531 
H    2.9158     2.2778    11.4466 
C    0.5218    -0.9286     7.7292 
H    1.1133    -1.6351     8.3113 
H    0.9041    -0.9241     6.7064 
H   -0.5030    -1.3036     7.6888 
C   -0.6309     3.9175     7.4369 
H   -0.9745     3.5425     6.4727 
H    0.0529     4.7539     7.2660 
H   -1.4841     4.3387     7.9710 
C   -0.5476     5.4844    10.1138 
C   -0.6716     6.8100     9.6479 
C   -1.8575     7.5208     9.8071 
H   -1.9172     8.5403     9.4370 
C   -2.9640     6.9664    10.4369 
C   -2.8359     5.6790    10.9338 
H   -3.6731     5.2314    11.4614 
C   -1.6585     4.9445    10.7876 
C    0.4808     7.5132     8.9738 
H    0.2661     8.5755     8.8509 
H    0.6874     7.0933     7.9847 
H    1.3982     7.4107     9.5571 
C   -4.2513     7.7342    10.5674 
H   -4.0629     8.7941    10.7438 
H   -4.8558     7.3528    11.3906 
H   -4.8481     7.6555     9.6554 
C   -1.6246     3.5628    11.3944 
H   -2.4363     3.4414    12.1125 
H   -0.6813     3.3787    11.9097 
H   -1.7241     2.7850    10.6342 
P    3.3473     4.2130     8.0417 
C    3.2032     5.8088     7.2332 
C    2.5670     5.8786     5.9943 
C    3.6951     6.9577     7.8400 
C    2.4180     7.1052     5.3700 
H    2.1774     4.9800     5.5289 
C    3.5456     8.1835     7.2049 
H    4.1687     6.8980     8.8124 
C    2.9073     8.2573     5.9764 
H    1.9138     7.1653     4.4148 
H    3.9161     9.0819     7.6802 
H    2.7825     9.2157     5.4896 
C    4.4407     3.2014     7.0217 
C    4.2305     1.8232     7.0586 
C    5.4386     3.7384     6.2135 
C    5.0333     0.9856     6.2990 
H    3.4346     1.4112     7.6741 
C    6.2365     2.8949     5.4544 
H    5.5857     4.8115     6.1745 
C    6.0355     1.5214     5.5005 
H    4.8707    -0.0838     6.3248 
H    7.0116     3.3096     4.8235 
H    6.6575     0.8663     4.9043 
C    4.8818     5.6762    14.1737 
H    4.7365     5.0835    15.0775 
H    4.9988     6.7138    14.4903 
C    6.1143     5.1903    13.3631 
H    6.5788     4.3144    13.8190 
H    6.8878     5.9563    13.2927 
H    1.3569     5.1476     8.8771 
H    2.1663     3.4867     7.9436 











 
