81

P    3.1435     3.5288     4.6783 
C    2.4457     1.9093     5.1593 
H    3.3842     1.3647     5.3114 
H    1.9859     1.9933     6.1438 
C    1.5829     1.1196     4.1602 
H    1.7050     0.0671     4.4322 
H    0.5250     1.3509     4.2969 
C    1.9391     1.3408     2.6851 
H    3.0351     1.3471     2.5915 
C    1.3702     2.6825     2.1859 
H    1.1106     3.3153     3.0438 
H    0.4002     2.4845     1.7188 
C    1.4251     0.1735     1.8464 
H    1.9018    -0.7680     2.1273 
H    1.6147     0.3518     0.7875 
H    0.3455     0.0632     1.9770 
C    4.6512     3.7130     5.6517 
C    4.6233     4.2917     6.9279 
C    5.8219     4.4352     7.6182 
H    5.8044     4.8789     8.6071 
C    7.0322     4.0209     7.0807 
C    7.0279     3.4288     5.8220 
H    7.9640     3.0839     5.3975 
C    5.8617     3.2612     5.0891 
C    3.3530     4.7674     7.5814 
H    2.5328     4.0617     7.4418 
H    3.0295     5.7261     7.1713 
H    3.5047     4.8878     8.6524 
C    8.3208     4.2091     7.8282 
H    8.8954     5.0290     7.3926 
H    8.9382     3.3124     7.7738 
H    8.1411     4.4438     8.8759 
C    5.9455     2.6115     3.7310 
H    5.7018     3.3080     2.9246 
H    5.2643     1.7632     3.6326 
H    6.9537     2.2435     3.5550 
C    2.1984     5.0628     4.6583 
C    0.8778     5.1877     5.1123 
C    0.2487     6.4206     4.9847 
H   -0.7816     6.5132     5.3072 
C    0.8886     7.5250     4.4403 
C    2.2004     7.3755     4.0074 
H    2.7072     8.2216     3.5561 
C    2.8724     6.1651     4.0855 
C    0.0931     4.0499     5.7047 
H   -0.9152     4.3793     5.9452 
H    0.5427     3.6767     6.6264 
H    0.0091     3.2206     5.0032 
C    0.1890     8.8449     4.3008 
H    0.5599     9.5533     5.0446 
H   -0.8858     8.7382     4.4341 
H    0.3710     9.2755     3.3154 
C    4.2720     6.0944     3.5310 
H    4.5005     7.0132     2.9936 
H    4.3835     5.2764     2.8154 
H    5.0162     5.9687     4.3201 
B    2.3437     3.5310     1.1842 
C    1.8849     5.0981     1.0156 
F    4.0562     5.6498     0.2671 
C    2.8157     6.0397     0.5947 
F    3.5156     8.2546     0.1384 
C    2.5634     7.3981     0.5107 
F    1.0455     9.1789     0.7934 
C    1.3076     7.8727     0.8422 
F   -0.8661     7.4310     1.6059 
C    0.3394     6.9790     1.2543 
F   -0.3584     4.8415     1.7527 
C    0.6416     5.6280     1.3318 
C    2.4911     2.7909    -0.2607 
C    1.4584     2.7795    -1.1863 
C    3.6199     2.0801    -0.6362 
C    1.5254     2.1270    -2.4050 
C    3.7332     1.4096    -1.8441 
C    2.6772     1.4348    -2.7360 
F    4.6792     1.9931     0.1855 
F    4.8422     0.7391    -2.1554 
F    2.7661     0.7975    -3.8998 
F    0.5028     2.1505    -3.2577 
F    0.3138     3.4192    -0.9072 
H    3.5596     3.3653     3.3586 
H    3.4750     3.5751     1.6460 















