83

P    3.2033     3.1004     4.4246 
C    2.6828     1.3475     4.6074 
H    3.6737     0.8869     4.5228 
H    2.3996     1.2026     5.6520 
C    1.7246     0.6150     3.6554 
H    1.9518    -0.4486     3.7771 
H    0.6948     0.7492     3.9927 
C    1.7806     1.0002     2.1739 
H    2.8226     0.9765     1.8376 
C    1.1541     2.3967     1.9714 
H    0.8538     2.7939     2.9411 
H    0.2057     2.2606     1.4454 
C    1.0471    -0.0540     1.3477 
H    1.5116    -1.0384     1.4381 
H    1.0471     0.2292     0.2937 
H    0.0059    -0.1328     1.6710 
C    4.4634     3.2398     5.7506 
C    4.1096     3.7618     7.0157 
C    5.1047     3.9552     7.9648 
H    4.8235     4.3581     8.9313 
C    6.4339     3.6329     7.7300 
C    6.7440     3.0410     6.5179 
H    7.7626     2.7196     6.3309 
C    5.7914     2.8254     5.5260 
C    2.7012     4.0877     7.4483 
H    2.6563     4.0934     8.5359 
H    1.9785     3.3539     7.0938 
H    2.3770     5.0651     7.0896 
C    7.4895     3.9017     8.7626 
H    8.3570     3.2595     8.6183 
H    7.1037     3.7456     9.7695 
H    7.8268     4.9383     8.6961 
C    6.2950     2.1207     4.2882 
H    6.7359     2.8211     3.5775 
H    5.5336     1.5527     3.7618 
H    7.0774     1.4195     4.5746 
C    2.0477     4.5001     4.5551 
C    0.6943     4.3898     4.9092 
C   -0.0975     5.5344     4.9185 
H   -1.1465     5.4310     5.1729 
C    0.4029     6.7844     4.6016 
C    1.7539     6.8783     4.2906 
H    2.1737     7.8500     4.0549 
C    2.5929     5.7744     4.2604 
C   -0.0111     3.1184     5.3026 
H   -0.6498     3.3125     6.1647 
H    0.6554     2.3053     5.5653 
H   -0.6535     2.7800     4.4867 
C   -0.4665     8.0077     4.6108 
H   -0.1799     8.6728     5.4279 
H   -1.5161     7.7462     4.7288 
H   -0.3579     8.5673     3.6804 
C    4.0327     6.0435     3.9000 
H    4.2648     7.0865     4.1058 
H    4.1836     5.8651     2.8338 
H    4.7402     5.4384     4.4665 
B    1.9852     3.5411     1.1692 
C    1.1475     4.9674     1.0562 
F    3.0056     5.9331    -0.0419 
C    1.7961     6.0714     0.5129 
F    1.9453     8.3702    -0.0259 
C    1.2680     7.3510     0.5002 
F   -0.5097     8.7951     1.0597 
C    0.0153     7.5710     1.0444 
F   -1.8791     6.7057     2.1270 
C   -0.6785     6.5056     1.5788 
F   -0.8685     4.2807     2.1242 
C   -0.1083     5.2411     1.5716 
C    2.3315     2.9628    -0.3390 
C    1.3241     2.8613    -1.2894 
C    3.5642     2.4941    -0.7605 
C    1.5122     2.3649    -2.5673 
C    3.8028     1.9857    -2.0282 
C    2.7690     1.9241    -2.9420 
F    4.6243     2.4882     0.0694 
F    5.0143     1.5505    -2.3716 
F    2.9763     1.4394    -4.1620 
F    0.5049     2.2999    -3.4346 
F    0.0769     3.2488    -0.9821 
C    3.9798     3.2647     2.7056 
O    3.2290     4.0069     1.8647 
H    4.9416     3.7529     2.8682 
H    4.1783     2.2440     2.3726 


















