78

P     1.8254    -1.0026    -0.4598 
C     2.6931     0.5951    -0.2076 
C     1.9055     1.7295     0.0491 
O     0.5620     1.5354    -0.0415 
C    -0.3168     2.5556     0.2289 
C    -1.6748     2.2149     0.1208 
C     0.1263     3.8176     0.5959 
B    -2.1294     0.7517    -0.3647 
C    -1.5792    -0.5232     0.4755 
C    -0.9784    -0.4529     1.7233 
F    -0.8690     0.7057     2.3721 
C    -0.4534    -1.5603     2.3697 
F     0.1357    -1.4360     3.5544 
C    -0.5175    -2.8032     1.7699 
F     0.0048    -3.8643     2.3695 
C    -1.1226    -2.9260     0.5337 
C    -1.6418    -1.7967    -0.0680 
F    -1.1915    -4.1130    -0.0639 
C     3.2261    -2.1859    -0.4295 
C     4.0224    -2.5044    -1.5290 
C     5.0667    -3.4095    -1.4020 
C     5.3313    -4.0031    -0.1746 
C     4.5433    -3.6951     0.9255 
C     3.4924    -2.7982     0.7952 
H     6.1455    -4.7096    -0.0782 
H     4.7387    -4.1606     1.8828 
H     2.8669    -2.5725     1.6524 
H     3.8270    -2.0431    -2.4897 
H     5.6764    -3.6508    -2.2633 
C     1.4555    -0.9828    -2.2598 
C     0.7742    -2.0919    -2.7709 
C     1.8102     0.0435    -3.1313 
C     0.4950    -2.1931    -4.1267 
H     0.4764    -2.8931    -2.1015 
C     1.5199    -0.0507    -4.4897 
H     2.3315     0.9143    -2.7520 
C     0.8739    -1.1724    -4.9930 
H    -0.0144    -3.0693    -4.5070 
H     1.8129     0.7504    -5.1566 
H     0.6634    -1.2506    -6.0519 
C    -3.7152     0.6750    -0.7310 
C    -4.6508    -0.0380     0.0086 
C    -4.2511     1.4205    -1.7750 
C    -6.0096    -0.0277    -0.2702 
C    -5.5960     1.4523    -2.0959 
C    -6.4859     0.7192    -1.3311 
F    -3.4396     2.1586    -2.5509 
F    -6.0378     2.1754    -3.1184 
F    -7.7794     0.7349    -1.6129 
F    -6.8572    -0.7267     0.4735 
F    -4.2827    -0.7697     1.0609 
C     1.6025     4.1737     0.6895 
C     2.4615     2.9621     0.3656 
C    -2.5930     3.2084     0.4300 
C    -0.8452     4.7764     0.8880 
H    -0.5341     5.7721     1.1793 
C    -2.1909     4.4815     0.8182 
H    -2.9270     5.2374     1.0573 
H    -3.6525     2.9900     0.3732 
C     1.9172     5.3049    -0.3046 
H     1.3183     6.1887    -0.0822 
H     2.9690     5.5882    -0.2479 
H     1.6984     4.9900    -1.3254 
C     1.9235     4.6459     2.1187 
H     2.9772     4.9118     2.2100 
H     1.3324     5.5252     2.3759 
H     1.7013     3.8586     2.8394 
C     3.8530     3.0482     0.3977 
C     4.0739     0.7279    -0.1588 
C     4.6560     1.9540     0.1366 
H     5.7330     2.0487     0.1711 
H     4.3155     3.9974     0.6392 
H     4.7016    -0.1344    -0.3419 
F    -2.2382    -1.9827    -1.2642 
C    -1.6495     0.1130    -2.8159 
O    -1.2915     0.5900    -1.7573 
H    -0.9281     0.0814    -3.6336 
H    -2.6637    -0.2703    -2.9496 



















 
