77

P    2.4493    -0.7812    -0.5710 
C    3.0934     0.9352    -0.5367 
C    2.1957     1.9873    -0.2922 
O    0.8651     1.6468    -0.2767 
C   -0.0786     2.5498     0.2020 
C   -1.3624     2.0222     0.3894 
C    0.2567     3.8705     0.4534 
B   -1.7107     0.4887     0.0530 
C   -0.8682    -0.6419     0.8657 
C   -0.0969    -0.4230     1.9958 
F   -0.0213     0.7848     2.5554 
C    0.6454    -1.4225     2.6064 
F    1.3900    -1.1557     3.6735 
C    0.6385    -2.7011     2.0845 
F    1.3704    -3.6565     2.6412 
C   -0.1251    -2.9710     0.9631 
C   -0.8570    -1.9464     0.3998 
F   -0.1355    -4.1930     0.4372 
C    3.9576    -1.7486    -0.9444 
C    4.5218    -1.8556    -2.2153 
C    5.6746    -2.6012    -2.4100 
C    6.2790    -3.2442    -1.3364 
C    5.7240    -3.1463    -0.0690 
C    4.5641    -2.4074     0.1238 
H    7.1782    -3.8266    -1.4909 
H    6.1863    -3.6519     0.7686 
H    4.1207    -2.3445     1.1115 
H    4.0570    -1.3536    -3.0557 
H    6.1032    -2.6811    -3.4008 
C    1.5945    -0.8303    -2.1962 
C    0.8681    -1.9885    -2.4901 
C    1.5611     0.2279    -3.1043 
C    0.1157    -2.0797    -3.6521 
H    0.8823    -2.8216    -1.7946 
C    0.7989     0.1404    -4.2651 
H    2.1275     1.1297    -2.9022 
C    0.0713    -1.0084    -4.5388 
H   -0.4443    -2.9826    -3.8594 
H    0.7737     0.9750    -4.9538 
H   -0.5276    -1.0718    -5.4376 
C   -3.3059     0.1980    -0.0299 
C   -4.0076    -0.6185     0.8469 
C   -4.0853     0.8205    -1.0007 
C   -5.3756    -0.8281     0.7641 
C   -5.4511     0.6330    -1.1213 
C   -6.1019    -0.2012    -0.2300 
F   -3.5262     1.6614    -1.8746 
F   -6.1425     1.2495    -2.0738 
F   -7.4097    -0.3920    -0.3259 
F   -5.9929    -1.6233     1.6305 
F   -3.3854    -1.2496     1.8470 
C    1.6501     4.4249     0.2037 
C    2.6198     3.2949    -0.1019 
C   -2.3270     2.8973     0.8702 
C   -0.7589     4.7034     0.9259 
H   -0.5421     5.7459     1.1203 
C   -2.0358     4.2280     1.1419 
H   -2.8066     4.8906     1.5123 
H   -3.3333     2.5338     1.0381 
C    1.6020     5.3897    -0.9942 
H    0.9161     6.2133    -0.7905 
H    2.5916     5.8059    -1.1907 
H    1.2596     4.8729    -1.8916 
C    2.1346     5.1836     1.4514 
H    3.1278     5.6019     1.2932 
H    1.4682     6.0126     1.6846 
H    2.1718     4.5172     2.3133 
C    3.9880     3.5471    -0.2080 
C    4.4467     1.2340    -0.6234 
C    4.8943     2.5391    -0.4706 
H    5.9497     2.7626    -0.5488 
H    4.3474     4.5605    -0.0848 
H    5.1592     0.4408    -0.8056 
F   -1.5953    -2.2606    -0.6906 
O   -1.2097     0.3247    -1.4894 
H   -0.2880     0.6427    -1.5648 
H   -1.2261    -0.5916    -1.8185 

















 
