79

P    2.0129    -0.7707    -0.5748 
C    2.4589     0.9087    -1.1468 
C    2.0474     2.0428    -0.4377 
O    1.2003     1.8952     0.6276 
C    0.2601     2.9125     0.8275 
C   -1.0302     2.5729     1.2352 
C    0.6639     4.2232     0.5654 
B   -1.6464     1.0839     1.4049 
C   -2.4210     0.7419     2.8136 
C   -2.5828     1.5586     3.9237 
F   -2.1098     2.8066     3.9517 
C   -3.2146     1.1436     5.0908 
F   -3.3448     1.9776     6.1167 
C   -3.6879    -0.1477     5.1933 
F   -4.2840    -0.5600     6.3020 
C   -3.5163    -1.0160     4.1275 
C   -2.8904    -0.5596     2.9857 
F   -3.9523    -2.2672     4.2172 
C    3.4102    -1.7751    -1.1852 
C    3.2441    -2.8705    -2.0270 
C    4.3407    -3.6418    -2.3968 
C    5.6070    -3.3254    -1.9327 
C    5.7796    -2.2346    -1.0877 
C    4.6889    -1.4699    -0.7117 
H    6.4589    -3.9256    -2.2244 
H    6.7655    -1.9832    -0.7189 
H    4.8308    -0.6199    -0.0533 
H    2.2605    -3.1262    -2.3991 
H    4.1989    -4.4905    -3.0532 
C    0.5983    -1.3412    -1.5662 
C   -0.3677    -2.1175    -0.9305 
C    0.4684    -1.0639    -2.9258 
C   -1.4489    -2.6189    -1.6449 
H   -0.2879    -2.3216     0.1302 
C   -0.6055    -1.5709    -3.6396 
H    1.1999    -0.4379    -3.4230 
C   -1.5657    -2.3476    -2.9998 
H   -2.2007    -3.2091    -1.1375 
H   -0.7074    -1.3420    -4.6921 
H   -2.4108    -2.7293    -3.5585 
C   -2.5154     0.7622     0.0518 
C   -3.8663     0.4445    -0.0071 
C   -1.9192     0.9418    -1.1946 
C   -4.5636     0.2698    -1.1938 
C   -2.5837     0.8120    -2.3995 
C   -3.9181     0.4519    -2.3998 
F   -0.6327     1.2973    -1.2771 
F   -1.9670     1.0502    -3.5536 
F   -4.5713     0.2993    -3.5445 
F   -5.8536    -0.0507    -1.1773 
F   -4.6026     0.3120     1.1023 
C    2.1155     4.4498     0.1733 
C    2.4916     3.3222    -0.7739 
C   -1.9335     3.6364     1.3311 
C   -0.2739     5.2369     0.6858 
H    0.0018     6.2606     0.4748 
C   -1.5762     4.9436     1.0654 
H   -2.3081     5.7362     1.1478 
H   -2.9590     3.4195     1.6117 
C    2.3460     5.8240    -0.4449 
H    2.0914     6.6065     0.2693 
H    3.3987     5.9557    -0.6952 
H    1.7490     5.9665    -1.3470 
C    2.9934     4.3294     1.4375 
H    4.0460     4.4500     1.1748 
H    2.7162     5.1051     2.1531 
H    2.8641     3.3584     1.9153 
C    3.2902     3.4678    -1.8988 
C    3.2869     1.0964    -2.2549 
C    3.6792     2.3639    -2.6453 
H    4.3053     2.4919    -3.5179 
H    3.6269     4.4516    -2.1954 
H    3.6326     0.2336    -2.8106 
F   -2.7396    -1.4491     1.9958 
C    0.3063    -0.0071     2.3978 
O   -0.4507     0.0439     1.4150 
O    1.4101    -0.6348     2.3851 
H    0.0467     0.4911     3.3342 
H    1.6642    -0.8506     1.3931 





















