47
SiC20N2H10O6Cl8
Cl       1.044065000      0.841919000      9.086753000
Cl       3.435266000      1.542729000      7.148674000
Cl      -2.192934000      3.281749000     15.172660000
Cl       0.831103000      4.054937000     19.615523000
Cl       5.893157000      4.129274000     11.237566000
Cl      -1.975860000      3.988073000     18.243620000
Cl       3.418398000      3.433192000     17.904676000
Cl       5.860947000      3.194659000      8.219738000
Si       2.103843000      2.393820000     13.442245000
O        0.543141000      2.759885000     13.947620000
O        2.717649000      2.869135000     15.005644000
O        1.506539000      1.971885000     11.873546000
O        3.416959000      3.204441000     12.719465000
N        6.182719000      0.750527000     12.327471000
N        4.856090000      0.215227000     14.196980000
C        0.471230000      3.085781000     15.254715000
C       -0.677325000      3.348260000     15.967383000
C        2.415999000      2.204084000     10.932192000
C        1.724289000      3.133231000     15.860785000
C        3.513223000      2.928639000     11.405907000
C        5.095928000      0.136932000     12.723514000
C        3.439625000      2.119689000      8.768207000
C        6.484223000      0.704618000     11.031170000
H        7.373205000      1.243447000     10.726669000
C        4.562495000      3.267695000     10.582736000
C        5.547498000     -0.939871000     14.848376000
H        5.093368000     -1.862727000     14.496970000
H        6.594030000     -0.890694000     14.558827000
H        5.429185000     -0.851095000     15.923188000
C       -0.559239000      3.657193000     17.331255000
C        0.692224000      3.690156000     17.943068000
C        4.250312000     -0.593972000     11.907022000
H        3.362519000     -1.082179000     12.281558000
C        4.520445000      2.856669000      9.242374000
C        2.371798000      1.788718000      9.615713000
C        5.697843000      0.035542000     10.106903000
H        5.956907000      0.053867000      9.056748000
C        1.850510000      3.423383000     17.201688000
C        4.565979000     -0.625958000     10.556814000
H        3.916887000     -1.145926000      9.863981000
C        5.405403000      1.500638000     14.773800000
H        5.073420000      1.552638000     15.807902000
H        6.485745000      1.461185000     14.694165000
H        5.015104000      2.338636000     14.203658000
C        3.344575000      0.194722000     14.592363000
O        2.614527000      0.748757000     13.703359000
O        3.075408000     -0.339316000     15.610818000
