49
SiC20N2H12O6Cl8
Cl       1.003584000     -0.688897000      9.990766000
Cl       2.023062000      0.400223000      7.201978000
Cl      -1.489555000      4.139494000     15.440931000
Cl       2.384693000      6.035804000     18.736269000
Cl       4.203198000      4.667000000      9.763916000
Cl      -0.643466000      5.784341000     18.001649000
Cl       4.551789000      4.641312000     16.913842000
Cl       3.625648000      3.084778000      7.089118000
Si       2.340410000      2.318882000     13.451247000
O        0.892030000      2.995852000     13.987052000
O        3.302898000      3.202917000     14.575787000
O        1.762210000      1.189259000     12.256337000
O        2.975207000      3.274468000     12.165301000
N        4.874812000      1.314714000     12.949543000
N        4.328810000     -0.830652000     13.636562000
C        1.125897000      3.720510000     15.104994000
C        0.157935000      4.313726000     15.885241000
C        2.094197000      1.530138000     11.009128000
C        2.483866000      3.826183000     15.432272000
C        2.805002000      2.730217000     10.959888000
C        5.368086000      0.129465000     13.243424000
C        2.326642000      1.291998000      8.638442000
C        5.723920000      2.271339000     12.580473000
H        5.280587000      3.236980000     12.369935000
C        3.292348000      3.212117000      9.763817000
C        3.697049000     -1.464297000     12.440117000
H        3.384967000     -0.675221000     11.761531000
H        4.431858000     -2.113880000     11.967940000
H        2.829692000     -2.024313000     12.780681000
C        0.552488000      5.038462000     17.019335000
C        1.900858000      5.148685000     17.346232000
C        6.703326000     -0.211240000     13.184097000
H        7.053613000     -1.200691000     13.439458000
C        3.039099000      2.487008000      8.589095000
C        1.855583000      0.799250000      9.865101000
C        7.090330000      2.044552000     12.481888000
H        7.747715000      2.845566000     12.175867000
C        2.877182000      4.536193000     16.548815000
C        7.582931000      0.787477000     12.784403000
H        8.642306000      0.578457000     12.718183000
C        4.737582000     -1.839996000     14.641791000
H        3.828186000     -2.320205000     14.993638000
H        5.400844000     -2.567528000     14.179647000
H        5.236674000     -1.334947000     15.465058000
O        2.433728000      0.902154000     14.527638000
H        3.590233000     -0.226443000     14.078864000
C        1.435401000      0.042840000     14.676422000
O        1.638608000     -1.127067000     14.879089000
H        0.432048000      0.481928000     14.614799000
