46
SiC19N2H12O4Cl8
Cl       1.244999000     -0.883665000     10.480323000
Cl       1.437332000      0.679089000      7.741828000
Cl      -1.858525000      2.204835000     15.491532000
Cl       0.240131000      6.106076000     18.630410000
Cl       3.410178000      4.967410000     10.426789000
Cl      -2.230281000      4.427297000     17.706934000
Cl       3.069041000      5.561651000     17.339282000
Cl       2.526529000      3.611427000      7.716342000
Si       2.637591000      2.103749000     14.083022000
O        1.012866000      2.027880000     14.543370000
O        2.943099000      3.340787000     15.271253000
O        2.281639000      0.788865000     12.798716000
O        3.030630000      3.125259000     12.783176000
N        5.339845000      1.080120000     12.166235000
N        4.312625000     -0.868826000     12.868589000
C        0.710242000      2.943777000     15.488676000
C       -0.536132000      3.156056000     16.031709000
C        2.231185000      1.346728000     11.580627000
C        1.819304000      3.692617000     15.893511000
C        2.692888000      2.664445000     11.572593000
C        5.425413000      0.083882000     13.019047000
C        1.923559000      1.440259000      9.203520000
C        6.243068000      2.049633000     12.248241000
H        6.124362000      2.872975000     11.553925000
C        2.793268000      3.367574000     10.391557000
C        4.433782000     -1.619159000     11.587625000
H        4.479456000     -0.897712000     10.776254000
H        5.341571000     -2.219945000     11.622141000
H        3.556404000     -2.249169000     11.473606000
C       -0.681710000      4.147387000     17.014305000
C        0.418787000      4.894288000     17.423513000
C        6.409564000     -0.060018000     13.976272000
H        6.438045000     -0.896181000     14.658697000
C        2.404283000      2.745263000      9.194337000
C        1.834506000      0.733733000     10.412034000
C        7.273132000      2.028532000     13.180008000
H        7.982345000      2.842419000     13.225337000
C        1.683379000      4.668622000     16.860929000
C        7.359436000      0.952148000     14.045291000
H        8.148273000      0.900234000     14.783692000
C        4.094837000     -1.774709000     14.015947000
H        3.151524000     -2.290231000     13.852289000
H        4.905363000     -2.498925000     14.077488000
H        4.033691000     -1.183282000     14.926168000
H        3.431968000     -0.232077000     12.805296000
H        3.640341000      1.182103000     14.656057000
