52

O        2.090574000     12.651554000      2.096898000
O       -0.075727000     13.103646000      2.819266000
C        1.202513000     11.894267000      1.400512000
C        1.454131000     10.975326000      0.408629000
H        2.466690000     10.771925000      0.087084000
C        0.352298000     10.320806000     -0.153141000
H        0.513833000      9.590248000     -0.934575000
C       -0.937939000     10.590613000      0.275082000
H       -1.771109000     10.068408000     -0.175998000
C       -1.184987000     11.527127000      1.285270000
H       -2.186913000     11.743512000      1.630347000
C       -0.097100000     12.164950000      1.833302000
C        1.852717000     13.717840000      4.449800000
C        1.023980000     13.344882000      5.508604000
H        0.029407000     12.980286000      5.282880000
C        1.442820000     13.434163000      6.828852000
H        0.774362000     13.144543000      7.629879000
C        2.717214000     13.896635000      7.118765000
H        3.054219000     13.969329000      8.144966000
C        3.564324000     14.270127000      6.085534000
H        4.556987000     14.636404000      6.316915000
C        3.144735000     14.184156000      4.759071000
C        5.462067000     15.786353000      4.206496000
C        5.099794000     17.116449000      4.421503000
H        4.132503000     17.469157000      4.080970000
C        5.960115000     17.988427000      5.070346000
H        5.663363000     19.016236000      5.234467000
C        7.204282000     17.544053000      5.499068000
H        7.881248000     18.225015000      5.998435000
C        7.577820000     16.225804000      5.281178000
H        8.546303000     15.874549000      5.613438000
C        6.711225000     15.348764000      4.641499000
H        7.008503000     14.319575000      4.483363000
C        5.205575000     13.219604000      2.970552000
C        4.994796000     11.986898000      3.579043000
H        4.236860000     11.885253000      4.345341000
C        5.743764000     10.881557000      3.195320000
H        5.568299000      9.925580000      3.671599000
C        6.709932000     10.999074000      2.207337000
H        7.292582000     10.136204000      1.911667000
C        6.923166000     12.227164000      1.592891000
H        7.671576000     12.324916000      0.817043000
C        6.168772000     13.327794000      1.966492000
H        6.332226000     14.282367000      1.478023000
P        4.236918000     14.709645000      3.381257000
B        1.300018000     13.504376000      2.965818000
O        1.375146000     15.017768000      2.251917000
H        2.327691000     15.273371000      2.311244000
C        0.926637000     15.088657000      0.887479000
H        1.014751000     16.117893000      0.548022000
H        1.519010000     14.420269000      0.263691000
H       -0.114438000     14.780456000      0.886120000



















 
