49

 O                  1.94927800   12.48738000    1.75859100
 O                  0.28523200   13.81633700    2.72903900
 C                  0.82225200   12.45601300    1.00093400
 C                  0.59473100   11.75887800   -0.16201600
 H                  1.37277700   11.14897500   -0.60151100
 C                 -0.67112600   11.87514800   -0.74835700
 H                 -0.88050400   11.34183600   -1.66624100
 C                 -1.65477700   12.66280400   -0.17350000
 H                 -2.62457600   12.73825400   -0.64735800
 C                 -1.41609000   13.36873000    1.01150700
 H                 -2.17545900   13.98872700    1.46826700
 C                 -0.17061700   13.25098900    1.58174000
 C                  2.19259400   12.97400900    4.24958400
 C                  1.29431400   12.56533800    5.23479900
 H                  0.23381900   12.65617500    5.03475400
 C                  1.73931900   12.05998700    6.44769300
 H                  1.02099500   11.75459200    7.19838700
 C                  3.10054500   11.94561900    6.71644900
 H                  3.43928400   11.55502600    7.66679700
 C                  4.02075600   12.34656200    5.76442500
 H                  5.08398800   12.28458700    5.96579600
 C                  3.55424700   12.84939200    4.54934300
 C                  6.15506800   14.12268100    4.00528700
 C                  6.13290900   15.42589700    4.50033000
 H                  5.25217000   16.04272100    4.37643300
 C                  7.25514700   15.93683100    5.13097600
 H                  7.24325900   16.95086000    5.50723100
 C                  8.39374000   15.15324400    5.27065000
 H                  9.26932400   15.55858600    5.76083700
 C                  8.41601500   13.85613300    4.77829300
 H                  9.30462200   13.24826400    4.88371500
 C                  7.29764200   13.33713700    4.14247800
 H                  7.31611800   12.32840500    3.74831300
 C                  5.13420000   12.15340600    2.11990500
 C                  4.57487200   10.88299600    2.19769800
 H                  3.84570700   10.65632700    2.96475900
 C                  4.93798400    9.92448100    1.26309900
 H                  4.50491700    8.93467400    1.31497800
 C                  5.84099500   10.23985000    0.25798600
 H                  6.11640700    9.49006800   -0.47235800
 C                  6.38763800   11.51543800    0.17612300
 H                  7.08194600   11.76088600   -0.61617800
 C                  6.03679500   12.47856400    1.10688700
 H                  6.45000400   13.47882800    1.04500900
 P                  4.66634700   13.42906200    3.28680100
 B                  1.68927700   13.48835600    2.80544600
 C                  3.76083500   14.81967200    2.36255500
 O                  4.47239100   15.63962200    1.84765200
 O                  2.48664100   14.76871500    2.40325500