48

 O                  1.88484100   13.96909900    2.17722500
 O                  0.32799700   12.34435200    2.90880700
 C                  1.47230700   13.19420300    1.14827100
 C                  1.89538800   13.23513900   -0.15936700
 H                  2.59968300   13.98959600   -0.48674600
 C                  1.39651500   12.26717300   -1.04167000
 H                  1.70917300   12.27965200   -2.07771200
 C                  0.50461900   11.30353200   -0.60219800
 H                  0.12477200   10.56843500   -1.30030900
 C                  0.07286000   11.26810900    0.73006400
 H                 -0.62313200   10.51771100    1.08099000
 C                  0.56390900   12.22190400    1.59819100
 C                  1.93139300   13.28624400    4.66557000
 C                  1.27322400   12.92059200    5.84472800
 H                  0.18954200   12.89149300    5.83249300
 C                  1.95432900   12.59746600    7.00464100
 H                  1.40572600   12.31192600    7.89384900
 C                  3.34457600   12.64636400    7.03704900
 H                  3.88422700   12.40546300    7.94320400
 C                  4.03651700   13.01332000    5.89974100
 H                  5.11715800   13.06201700    5.92907100
 C                  3.33184300   13.32308000    4.72658100
 C                  6.00815700   14.03570000    3.78924000
 C                  6.34800600   15.31261400    4.23134500
 H                  5.60657500   16.10361600    4.23131800
 C                  7.63499400   15.57323200    4.67599700
 H                  7.89708100   16.56618200    5.01608600
 C                  8.58443300   14.55987000    4.67966100
 H                  9.58967300   14.76426700    5.02440600
 C                  8.24959800   13.28687300    4.23808400
 H                  8.99103600   12.49901500    4.23856000
 C                  6.96313300   13.02204700    3.79178800
 H                  6.70115700   12.03085100    3.44194800
 C                  4.35688100   12.42706200    2.04717600
 C                  3.52039200   11.32147500    2.15851000
 H                  2.85080300   11.22434500    3.00553400
 C                  3.50701500   10.37282900    1.14648600
 H                  2.83253500    9.53047000    1.21528100
 C                  4.31940100   10.53039100    0.03461200
 H                  4.28811000    9.79871700   -0.76201600
 C                  5.15965500   11.63304300   -0.07211300
 H                  5.78737300   11.75735900   -0.94442300
 C                  5.18035100   12.58477300    0.93254700
 H                  5.82830900   13.44985800    0.84698200
 P                  4.30673600   13.72230600    3.27611100
 B                  1.01526300   13.60401900    3.36451800
 H                  0.21695400   14.48386800    3.62047900
 H                  3.93239800   14.93511600    2.70557200