49

O        2.076818000     12.472813000      2.343777000
O        0.000646000     12.490941000      3.298732000
C        1.163096000     12.010514000      1.437085000
C        1.368264000     11.584170000      0.145246000
H        2.357579000     11.576179000     -0.290829000
C        0.239578000     11.163359000     -0.559506000
H        0.351713000     10.820255000     -1.579126000
C       -1.023391000     11.174849000      0.021854000
H       -1.875703000     10.841929000     -0.554960000
C       -1.218226000     11.607377000      1.334172000
H       -2.195476000     11.621425000      1.795879000
C       -0.099510000     12.021989000      2.019564000
C        1.912686000     13.385877000      4.792748000
C        1.174942000     13.127500000      5.949931000
H        0.242268000     12.583144000      5.863635000
C        1.607531000     13.557475000      7.195318000
H        1.019139000     13.347279000      8.078951000
C        2.794840000     14.264069000      7.294850000
H        3.146043000     14.608028000      8.259546000
C        3.539827000     14.541352000      6.155570000
H        4.458199000     15.105561000      6.252701000
C        3.117834000     14.109090000      4.900460000
C        5.283201000     15.740794000      3.999050000
C        4.872215000     17.071815000      4.088777000
H        3.868094000     17.342378000      3.780297000
C        5.731488000     18.046902000      4.571278000
H        5.396797000     19.073850000      4.641044000
C        7.023087000     17.706165000      4.952543000
H        7.698809000     18.467168000      5.320975000
C        7.446249000     16.388590000      4.852451000
H        8.453177000     16.118901000      5.144461000
C        6.580892000     15.408908000      4.381924000
H        6.918569000     14.382091000      4.314059000
C        5.080950000     13.052382000      3.094936000
C        5.203155000     12.011912000      4.011223000
H        4.666887000     12.053255000      4.951262000
C        6.008883000     10.916408000      3.726511000
H        6.092563000     10.111486000      4.445514000
C        6.705717000     10.853331000      2.528766000
H        7.333630000      9.999455000      2.309553000
C        6.589982000     11.887882000      1.608888000
H        7.127635000     11.843501000      0.670417000
C        5.775908000     12.974940000      1.887914000
H        5.677451000     13.774674000      1.162093000
P        4.051988000     14.539791000      3.370140000
B        1.336481000     12.827896000      3.464240000
O        0.982224000     15.171434000      2.086833000
H        1.949880000     15.155897000      2.049311000
H        0.683937000     14.863778000      1.225364000
