51

O        0.726129000     11.505529000      2.273549000
O        1.573084000     13.692142000      2.127877000
C       -0.170213000     12.325227000      1.674388000
C       -1.417649000     12.007307000      1.188406000
H       -1.794046000     10.995683000      1.258973000
C       -2.170151000     13.034460000      0.606690000
H       -3.155234000     12.813267000      0.217608000
C       -1.672782000     14.324002000      0.521118000
H       -2.272580000     15.100851000      0.065624000
C       -0.401262000     14.640930000      1.013717000
H       -0.001289000     15.644074000      0.949472000
C        0.332630000     13.628230000      1.587181000
C        2.353119000     12.280541000      4.127660000
C        1.624478000     11.555236000      5.071122000
H        0.761987000     10.997064000      4.728402000
C        1.981854000     11.535079000      6.410559000
H        1.397469000     10.957589000      7.116082000
C        3.084940000     12.254265000      6.858940000
H        3.362172000     12.241516000      7.904564000
C        3.825164000     12.993304000      5.954775000
H        4.675859000     13.570685000      6.300468000
C        3.455519000     12.997487000      4.607019000
C        4.662005000     15.620909000      4.141869000
C        3.623119000     16.174675000      4.889057000
H        2.746823000     15.582480000      5.122051000
C        3.716679000     17.486225000      5.328221000
H        2.910477000     17.915871000      5.907454000
C        4.839761000     18.243458000      5.024180000
H        4.910745000     19.266091000      5.371150000
C        5.871564000     17.694869000      4.274492000
H        6.744565000     18.286951000      4.034600000
C        5.785417000     16.384835000      3.829131000
H        6.589748000     15.958973000      3.242517000
C        6.089702000     13.236803000      3.218313000
C        7.080837000     13.364918000      4.193159000
H        6.897041000     13.941313000      5.092362000
C        8.311934000     12.762778000      4.000387000
H        9.083013000     12.860098000      4.752915000
C        8.553050000     12.035465000      2.839893000
H        9.516727000     11.565545000      2.691574000
C        7.565836000     11.908632000      1.874476000
H        7.749727000     11.338671000      0.973675000
C        6.325038000     12.505156000      2.056250000
H        5.551118000     12.374591000      1.307871000
P        4.471435000     13.954332000      3.488459000
B        1.916960000     12.305664000      2.569131000
O        3.128120000     11.847529000      1.811397000
H        3.847537000     14.054848000      2.250040000
C        3.064092000     11.687574000      0.504536000
H        2.042757000     11.662984000      0.094071000
O        4.040437000     11.574037000     -0.189882000





























