85

P    8.1681     3.8893     1.2063 
C    7.6322     4.4250    -1.4790 
C    4.8280     8.1256     0.6961 
C    6.5788     5.4939    -1.7127 
C    9.8287     3.4291     1.8239 
C    8.3597     3.6772    -0.5898 
C    7.7413     4.2352    -2.8822 
C    5.5660     9.3142     0.5115 
C    5.6782     6.3617    -1.1378 
C    4.8919     7.0466    -2.1038 
H    4.1681     7.7711    -1.7475 
C    4.2526     4.3049     0.9705 
C    7.1261     2.4803     1.7053 
C    5.0252     5.6251     2.8239 
C    5.0161    10.5536     0.8418 
H    5.6161    11.4467     0.6960 
C   11.4442     1.9107     2.7747 
H   11.6821     0.9359     3.1807 
C    6.6957     5.2833    -3.1057 
C   10.1499     2.1792     2.3472 
H    9.3902     1.4111     2.4201 
C    6.5763     1.5800     0.7973 
H    6.7645     1.6944    -0.2630 
C    3.4747     8.2715     1.0791 
C    4.9259     5.4631     1.4202 
C    9.2476     2.7248    -1.1679 
H    9.8599     2.1185    -0.5113 
C    4.9939     6.8458    -3.4683 
H    4.3474     7.4081    -4.1305 
C   10.8240     4.4036     1.7384 
H   10.5838     5.3813     1.3346 
C    6.8626     2.3227     3.0662 
H    7.2644     3.0342     3.7795 
C    8.5803     3.3185    -3.4379 
H    8.6684     3.1653    -4.5051 
C    5.9162     5.9339    -4.0187 
H    5.9835     5.7733    -5.0863 
C    3.7223    10.6815     1.3153 
C    4.4486     4.7086     3.6993 
H    4.5318     4.8792     4.7684 
C    2.9575     9.5251     1.3887 
H    1.9150     9.6020     1.6814 
C    9.3534     2.5550    -2.5277 
H   10.0449     1.8162    -2.9120 
C    6.9529     9.3554    -0.1019 
H    7.7488     9.3131     0.6474 
H    7.0798    10.2971    -0.6353 
H    7.1188     8.5420    -0.8043 
C    3.7587     3.5955     3.2481 
C    3.6894     3.4092     1.8788 
H    3.1724     2.5352     1.4962 
C    4.0589     3.9477    -0.4854 
H    4.9941     3.6199    -0.9443 
H    3.6895     4.7803    -1.0825 
H    3.3469     3.1274    -0.5699 
C    5.7837     0.5313     1.2467 
H    5.3560    -0.1603     0.5321 
C    6.0928     1.2617     3.5141 
H    5.8999     1.1458     4.5730 
C   12.4291     2.8828     2.6783 
H   13.4366     2.6702     3.0114 
C    5.5489     0.3648     2.6035 
H    4.9385    -0.4586     2.9524 
C    5.7381     6.7829     3.4954 
H    5.3786     6.9010     4.5166 
H    5.5746     7.7348     2.9890 
H    6.8154     6.5942     3.5730 
C   12.1173     4.1314     2.1553 
H   12.8805     4.8949     2.0781 
C    2.4997     7.1157     1.1101 
H    1.4802     7.4974     1.0542 
H    2.5886     6.5168     2.0178 
H    2.6522     6.4416     0.2669 
B    5.4911     6.6547     0.4409 
C    3.1538    12.0170     1.7064 
H    3.7169    12.8333     1.2545 
H    3.1878    12.1500     2.7902 
H    2.1114    12.1068     1.3992 
C    3.0968     2.6414     4.2017 
H    3.6128     2.6214     5.1624 
H    3.0857     1.6292     3.7956 
H    2.0616     2.9360     4.3893 
O    7.0705     6.8117     0.9366 
H    7.4247     5.9260     1.2330 
H    7.1300     7.4280     1.6789 
























 
