86

P        8.279078000      3.557306000      0.756116000
C        7.859878000      4.891397000     -1.646734000
C        4.795000000      7.390406000      1.272432000
C        6.666269000      5.792224000     -1.701005000
C        9.839490000      3.072098000      1.525950000
C        8.639808000      4.025255000     -0.925743000
C        8.112404000      5.139288000     -3.027426000
C        5.532242000      8.506801000      1.724148000
C        5.616196000      6.285467000     -0.966033000
C        4.786661000      7.124416000     -1.754144000
H        3.951106000      7.620504000     -1.274027000
C        4.226834000      3.620427000      0.392628000
C        7.205256000      2.117315000      0.780210000
C        4.542045000      4.538805000      2.589527000
C        4.888381000      9.611403000      2.276924000
H        5.488602000     10.448821000      2.620595000
C       11.304136000      1.474564000      2.569785000
H       11.487163000      0.471959000      2.932774000
C        6.906176000      6.032876000     -3.069332000
C       10.078987000      1.783328000      1.992733000
H        9.316062000      1.020892000      1.904308000
C        6.930221000      1.409413000     -0.386160000
H        7.313208000      1.757729000     -1.337553000
C        3.389729000      7.504768000      1.319430000
C        4.738601000      4.667310000      1.196857000
C        9.728474000      3.412275000     -1.623088000
H       10.382246000      2.731739000     -1.091799000
C        4.995697000      7.372947000     -3.103274000
H        4.307594000      8.028881000     -3.622404000
C       10.835488000      4.046195000      1.630168000
H       10.661422000      5.045874000      1.247856000
C        6.698829000      1.679385000      2.004307000
H        6.888592000      2.237794000      2.913335000
C        9.140115000      4.555257000     -3.699849000
H        9.337300000      4.731368000     -4.748746000
C        6.077531000      6.820675000     -3.818713000
H        6.223909000      7.026848000     -4.870243000
C        3.507443000      9.688660000      2.383333000
C        3.868152000      3.439209000      3.128156000
H        3.740099000      3.379537000      4.205334000
C        2.776635000      8.630208000      1.871414000
H        1.691826000      8.678891000      1.890930000
C        9.964494000      3.674086000     -2.947727000
H       10.801954000      3.191337000     -3.434165000
C        7.038623000      8.598673000      1.622403000
H        7.535944000      7.960478000      2.355802000
H        7.357154000      9.626701000      1.797858000
H        7.393156000      8.283144000      0.642311000
C        3.336350000      2.443545000      2.328743000
C        3.532371000      2.556567000      0.959467000
H        3.141035000      1.779390000      0.309454000
C        4.363694000      3.586247000     -1.111333000
H        5.407890000      3.581617000     -1.426399000
H        3.899762000      4.450451000     -1.588882000
H        3.894437000      2.685110000     -1.507125000
C        6.152814000      0.261648000     -0.323851000
H        5.929724000     -0.283773000     -1.231199000
C        5.935286000      0.526627000      2.059362000
H        5.530839000      0.197209000      3.007419000
C       12.288198000      2.445200000      2.677640000
H       13.241327000      2.200979000      3.128212000
C        5.664179000     -0.182822000      0.896267000
H        5.057746000     -1.078512000      0.940688000
C        4.981538000      5.585480000      3.593441000
H        5.846402000      6.161547000      3.272553000
H        5.207145000      5.112998000      4.551790000
H        4.181331000      6.311406000      3.758471000
C       12.055126000      3.731298000      2.204391000
H       12.824056000      4.488233000      2.282358000
C        2.453338000      6.446995000      0.773637000
H        1.492680000      6.899616000      0.524148000
H        2.270559000      5.650468000      1.498848000
H        2.843954000      5.970051000     -0.124607000
B        5.497858000      6.031451000      0.651617000
C        2.838226000     10.877022000      3.017698000
H        3.356971000     11.802999000      2.766044000
H        2.835928000     10.789358000      4.106894000
H        1.801802000     10.966011000      2.691603000
C        2.582468000      1.277392000      2.904642000
H        1.510797000      1.371057000      2.716263000
H        2.725737000      1.205824000      3.983094000
H        2.908219000      0.338401000      2.450180000
C        7.600805000      4.981284000      1.766199000
O        6.981420000      5.934949000      1.046236000
H        8.497512000      5.386841000      2.254476000
H        6.998426000      4.479127000      2.534900000






























 
