58

P    4.2779     6.0802    12.9245 
B    5.7023     7.7004    15.3416 
C    5.4486     4.9096    13.7377 
C    5.6963     3.7685    13.0088 
H    5.2592     3.6654    12.0213 
C    6.4377     2.6926    13.5246 
H    6.6044     1.8135    12.9160 
C    6.8888     2.7496    14.8101 
H    7.4097     1.9110    15.2563 
C    6.6803     3.9096    15.5912 
C    7.1198     3.9200    16.9396 
H    7.6062     3.0318    17.3259 
C    6.9224     5.0080    17.7325 
H    7.2386     5.0056    18.7673 
C    6.3421     6.1646    17.1742 
H    6.2587     7.0507    17.7937 
C    5.9284     6.2328    15.8598 
C    6.0193     5.0487    15.0444 
C    2.9032     4.9169    12.5012 
C    2.4894     4.8843    11.1572 
C    1.4503     4.0364    10.7818 
H    1.1355     4.0127     9.7456 
C    0.8187     3.2322    11.7134 
C    1.2258     3.2649    13.0361 
H    0.7318     2.6369    13.7677 
C    2.2662     4.0927    13.4487 
C    3.1360     5.7371    10.0923 
H    2.6877     5.5294     9.1219 
H    4.2083     5.5494    10.0213 
H    3.0187     6.8004    10.3040 
C    2.6770     4.0436    14.8954 
H    1.8986     3.5724    15.4937 
H    2.8716     5.0351    15.3040 
H    3.5958     3.4652    15.0182 
C    5.2848     8.8753    16.3187 
C    6.2737     9.7898    16.7205 
C    5.9507    10.8150    17.6039 
H    6.7211    11.5093    17.9179 
C    4.6591    10.9484    18.0879 
C    3.6828    10.0458    17.6998 
H    2.6744    10.1410    18.0847 
C    3.9838     9.0056    16.8251 
C    7.6888     9.6621    16.2144 
H    8.0448     8.6311    16.2748 
H    8.3666    10.2886    16.7925 
H    7.7647     9.9666    15.1680 
C    2.9034     8.0352    16.4258 
H    2.6151     8.1741    15.3808 
H    2.0106     8.1672    17.0355 
H    3.2458     7.0044    16.5390 
H    0.0093     2.5803    11.4099 
H    4.4164    11.7494    18.7746 
C    5.8994     9.1626    13.3739 
H    5.5346     9.9495    14.0359 
H    6.8587     9.4540    12.9466 
H    5.1869     9.0046    12.5629 
O    6.0661     7.9372    14.0587 
H    3.6992     6.6091    14.0955 










 
