54

P     5.1647     5.8643    12.5932 
B     4.4613     6.9567    15.4395 
C     6.0871     4.7774    13.7471 
C     6.8612     3.8430    13.0983 
H     6.8775     3.8363    12.0146 
C     7.6110     2.8762    13.7935 
H     8.1888     2.1450    13.2437 
C     7.6021     2.8784    15.1558 
H     8.1719     2.1459    15.7154 
C     6.8758     3.8583    15.8753 
C     6.9459     3.8774    17.2887 
H     7.5335     3.1163    17.7877 
C     6.3073     4.8487    18.0003 
H     6.3720     4.8747    19.0804 
C     5.5767     5.8393    17.3176 
H     5.1088     6.6283    17.8982 
C     5.4381     5.8436    15.9449 
C     6.0994     4.8326    15.1819 
C     3.3563     5.5319    12.7476 
C     2.5080     6.6320    12.5122 
C     1.1303     6.4547    12.5619 
H     0.4853     7.3079    12.3874 
C     0.5803     5.2114    12.8232 
C     1.4176     4.1268    13.0067 
H     0.9955     3.1448    13.1829 
C     2.8043     4.2597    12.9608 
C     3.0453     8.0079    12.2207 
H     2.2402     8.6678    11.9015 
H     3.8000     7.9888    11.4308 
H     3.5138     8.4546    13.1028 
C     3.6348     3.0141    13.1257 
H     2.9921     2.1354    13.0979 
H     4.1790     3.0064    14.0712 
H     4.3726     2.9171    12.3284 
C     4.7215     8.4842    15.6252 
C     6.0173     9.0477    15.5895 
C     6.1777    10.4197    15.7569 
H     7.1724    10.8466    15.7146 
C     5.0852    11.2419    15.9744 
C     3.8097    10.7025    16.0095 
H     2.9557    11.3479    16.1750 
C     3.6114     9.3387    15.8255 
C     7.2557     8.2206    15.3481 
H     7.5087     7.6209    16.2236 
H     8.1019     8.8688    15.1244 
H     7.1334     7.5264    14.5158 
C     2.1966     8.8139    15.8579 
H     1.9288     8.3273    14.9176 
H     1.4955     9.6282    16.0348 
H     2.0587     8.0718    16.6449 
H    -0.4939     5.0856    12.8635 
H     5.2271    12.3070    16.1094 
H     3.3819     6.6049    15.0946 
H     5.1895     7.0552    13.3584 







 
