55

P    5.1938     4.7450    12.2440 
B    5.8233     7.1194    14.7328 
C    6.0552     3.9988    13.7022 
C    6.5191     2.7426    13.3759 
H    6.4302     2.4106    12.3485 
C    7.0439     1.8458    14.3232 
H    7.3927     0.8707    14.0097 
C    7.0488     2.2073    15.6341 
H    7.3909     1.5224    16.4010 
C    6.6181     3.4969    16.0292 
C    6.6567     3.8190    17.4083 
H    6.9899     3.0565    18.1025 
C    6.2872     5.0518    17.8486 
H    6.3091     5.2978    18.9022 
C    5.9118     6.0223    16.9025 
H    5.6751     7.0202    17.2565 
C    5.8683     5.7759    15.5451 
C    6.1720     4.4540    15.0659 
C    3.5173     5.2455    12.8092 
C    3.0025     6.5117    12.4689 
C    1.6830     6.8191    12.7899 
H    1.2983     7.7998    12.5371 
C    0.8618     5.8947    13.4104 
C    1.3564     4.6363    13.7050 
H    0.7132     3.8970    14.1671 
C    2.6706     4.2913    13.4061 
C    3.8058     7.5464    11.7236 
H    3.1727     8.3921    11.4608 
H    4.2284     7.1401    10.8025 
H    4.6310     7.9294    12.3262 
C    3.1310     2.8924    13.7162 
H    2.2753     2.2558    13.9359 
H    3.8038     2.8677    14.5762 
H    3.6742     2.4586    12.8737 
C    4.9172     8.3694    15.1045 
C    5.4171     9.6840    14.9439 
C    4.5919    10.7824    15.1627 
H    4.9966    11.7803    15.0427 
C    3.2704    10.6149    15.5349 
C    2.7812     9.3385    15.7391 
H    1.7554     9.2001    16.0590 
C    3.5858     8.2155    15.5562 
C    6.8536     9.9961    14.5779 
H    7.5590     9.2753    14.9876 
H    7.1216    10.9805    14.9589 
H    7.0029    10.0426    13.4932 
C    2.9688     6.8863    15.9100 
H    3.2734     6.0821    15.2479 
H    1.8834     6.9607    15.8767 
H    3.2535     6.5954    16.9236 
H   -0.1630     6.1489    13.6498 
H    2.6323    11.4765    15.6867 
O    6.7792     7.2245    13.7650 
H    5.7768     6.0117    12.2121 
H    6.8004     8.0745    13.3177 






















 
