61

C   13.5914     6.5287    10.5593 
C   13.1156     7.4998    11.4485 
H   12.5482     8.3391    11.0603 
C   13.3663     7.4286    12.8068 
H   13.0099     8.2046    13.4710 
C   14.0558     6.3336    13.3042 
H   14.2325     6.2380    14.3680 
C   14.5039     5.3422    12.4443 
H   14.9991     4.4782    12.8587 
C   14.3127     5.4303    11.0628 
N   14.7941     4.4145    10.1648 
C   16.2709     4.1705    10.1897 
C   16.6213     3.2943     8.9797 
H   16.3906     3.8576     8.0696 
H   17.6984     3.1153     8.9858 
C   15.8384     1.9957     8.9549 
H   16.0529     1.3997     9.8465 
H   16.1316     1.3898     8.0959 
C   14.3632     2.3431     8.8673 
H   13.7446     1.4426     8.8616 
H   14.1863     2.8646     7.9231 
C   13.8744     3.2386    10.0137 
C   12.4835     3.7402     9.6259 
H   12.5388     4.3843     8.7453 
H   12.0021     4.2785    10.4396 
H   11.8570     2.8845     9.3693 
C   13.6951     2.3835    11.2830 
H   13.4411     2.9985    12.1457 
H   14.5714     1.7853    11.5215 
H   12.8679     1.6896    11.1236 
C   16.8530     3.5223    11.4677 
H   16.9628     4.2570    12.2642 
H   17.8533     3.1467    11.2441 
H   16.2656     2.6911    11.8462 
C   17.0086     5.4979    10.0057 
H   16.8380     5.8973     9.0094 
H   18.0802     5.3259    10.1208 
H   16.7077     6.2424    10.7444 
C   11.9317     7.1708     8.4747 
C   10.7419     6.8778     9.1535 
F   10.7525     6.2698    10.3328 
C    9.4888     7.1773     8.6515 
F    8.3944     6.8679     9.3322 
C    9.3781     7.8083     7.4249 
F    8.1891     8.1046     6.9374 
C   10.5206     8.1289     6.7145 
F   10.4182     8.7400     5.5432 
C   11.7590     7.8075     7.2395 
F   12.8020     8.1620     6.4956 
B   13.3546     6.8071     9.0451 
C   14.6072     6.9410     8.0932 
C   15.4970     7.9841     8.2799 
C   14.8820     6.0734     7.0537 
C   16.6194     8.1586     7.4898 
C   16.0072     6.1942     6.2600 
C   16.8803     7.2480     6.4806 
F   14.0377     5.0714     6.7889 
F   16.2548     5.3218     5.2912 
F   17.9578     7.3848     5.7236 
F   17.4496     9.1720     7.6975 
F   15.2769     8.8736     9.2520 


 
