64

C   14.3947     6.4922    10.7986 
C   14.3812     7.6999    11.5089 
H   14.0867     8.5977    10.9798 
C   14.7065     7.7847    12.8432 
H   14.6799     8.7357    13.3585 
C   15.0619     6.6239    13.5153 
H   15.3139     6.6460    14.5672 
C   15.0915     5.4195    12.8428 
H   15.3483     4.5516    13.4148 
C   14.7733     5.3382    11.4814 
N   14.8043     3.9788    10.7993 
C   16.2797     3.3163    10.8409 
C   16.2235     1.8438    10.4000 
H   16.0628     1.7688     9.3297 
H   17.2183     1.4413    10.5979 
C   15.1763     1.0258    11.1387 
H   15.3984     0.9930    12.2086 
H   15.2126    -0.0064    10.7887 
C   13.7843     1.5882    10.8969 
H   13.0511     1.0174    11.4692 
H   13.5201     1.4824     9.8506 
C   13.6181     3.0485    11.3539 
C   12.3139     3.6370    10.8232 
H   12.2487     3.6228     9.7362 
H   12.1684     4.6536    11.1870 
H   11.4952     3.0265    11.2056 
C   13.5052     3.0388    12.8824 
H   13.2217     4.0037    13.2901 
H   14.3937     2.6715    13.3894 
H   12.6983     2.3439    13.1120 
C   16.9642     3.3573    12.2120 
H   17.2313     4.3639    12.5168 
H   17.8942     2.8044    12.0863 
H   16.4089     2.8643    13.0051 
C   17.1564     4.1288     9.8913 
H   16.8800     4.0112     8.8453 
H   18.1804     3.7724    10.0024 
H   17.1382     5.1897    10.1418 
C   12.4368     6.5411     8.8603 
C   11.3783     6.7274     9.7341 
F   11.5930     6.9239    11.0436 
C   10.0506     6.7212     9.3387 
F    9.0762     6.8953    10.2273 
C    9.7386     6.5293     8.0060 
F    8.4732     6.5186     7.6092 
C   10.7601     6.3492     7.0908 
F   10.4711     6.1716     5.8065 
C   12.0728     6.3624     7.5307 
F   13.0150     6.2051     6.5977 
B   14.0332     6.5179     9.2426 
C   14.8105     7.7308     8.4642 
C   14.2421     8.9910     8.3317 
C   16.0719     7.6070     7.8987 
C   14.8476    10.0459     7.6705 
C   16.7133     8.6331     7.2242 
C   16.0953     9.8632     7.1050 
F   16.7597     6.4619     7.9941 
F   17.9211     8.4481     6.7000 
F   16.6971    10.8589     6.4684 
F   14.2467    11.2278     7.5809 
F   13.0444     9.2545     8.8771 
C   14.5463     4.0674     9.2254 
O   14.4415     3.0269     8.6586 
O   14.5568     5.2103     8.6922 









 
