63

P    2.8561     3.6790     4.0235 
C    2.4299     2.0213     4.6548 
H    3.3343     1.4122     4.6668 
H    2.1298     2.1233     5.7028 
C    1.3511     1.2936     3.8846 
C    0.8520     3.0519     2.0778 
H    0.1117     3.7530     2.4586 
H    0.5481     2.8964     1.0379 
B    2.3626     3.6710     2.0224 
C    2.4975     5.2024     1.4386 
F    4.8470     4.9876     1.2517 
C    3.7361     5.7234     1.0839 
F    5.1615     7.3983     0.2345 
C    3.9370     6.9759     0.5306 
F    3.0060     8.9901    -0.2489 
C    2.8463     7.7851     0.2783 
F    0.5206     8.0679     0.3397 
C    1.5849     7.3103     0.5817 
F    0.1692     5.6911     1.3789 
C    1.4376     6.0497     1.1365 
C    3.1861     2.6407     1.0178 
C    3.0796     2.8505    -0.3602 
C    3.8438     1.4598     1.3304 
C    3.6308     2.0237    -1.3241 
C    4.4135     0.6013     0.4030 
C    4.3165     0.8870    -0.9423 
F    3.9657     1.0544     2.6031 
F    5.0420    -0.4995     0.8056 
F    4.8499     0.0799    -1.8485 
F    3.4895     2.3062    -2.6144 
F    2.3793     3.8834    -0.8476 
C    1.0545    -0.0612     4.4652 
H    0.7330     0.0209     5.5076 
H    0.2744    -0.5730     3.9045 
H    1.9528    -0.6851     4.4561 
C    0.7108     1.7398     2.8033 
H   -0.0368     1.0640     2.3958 
C    4.6427     3.9879     4.5461 
C    4.9872     5.4756     4.3992 
H    4.4172     6.1085     5.0759 
H    6.0447     5.6055     4.6410 
H    4.8385     5.8356     3.3834 
C    4.9633     3.5293     5.9788 
H    4.5790     2.5312     6.1930 
H    6.0511     3.4795     6.0694 
H    4.6085     4.2109     6.7440 
C    5.5675     3.1738     3.6260 
H    5.3413     3.2963     2.5714 
H    6.5887     3.5236     3.7930 
H    5.5374     2.1148     3.8737 
C    1.7022     4.7958     5.0386 
C    1.5298     6.1707     4.3828 
H    2.4679     6.6120     4.0459 
H    0.8517     6.1115     3.5356 
H    1.0810     6.8478     5.1138 
C    0.3083     4.1633     5.1936 
H   -0.3095     4.8807     5.7391 
H   -0.1846     3.9573     4.2512 
H    0.3317     3.2435     5.7772 
C    2.2221     4.9873     6.4699 
H    2.4208     4.0399     6.9721 
H    3.1122     5.6079     6.5205 
H    1.4397     5.4980     7.0356 










 
