65

P    2.6854     4.0113     4.6870 
C    2.6665     2.3090     4.0615 
H    3.4171     2.3102     3.2670 
H    3.0652     1.7064     4.8843 
C    1.3789     1.6996     3.5371 
C    0.8992     3.5313     1.8255 
H    0.7431     4.3802     2.5017 
H    0.1216     3.6370     1.0689 
B    2.3834     3.6980     1.1014 
C    2.3224     4.9977     0.1110 
F    2.3736     3.8570    -1.9653 
C    2.3129     5.0020    -1.2760 
F    2.2447     6.0975    -3.3684 
C    2.2478     6.1591    -2.0394 
F    2.1198     8.5085    -2.1302 
C    2.1844     7.3899    -1.4151 
F    2.1346     8.6207     0.5883 
C    2.1904     7.4424    -0.0330 
F    2.2680     6.3924     2.0294 
C    2.2578     6.2612     0.6807 
C    2.8563     2.2998     0.4027 
C    2.0028     1.5022    -0.3481 
C    4.1203     1.7645     0.5852 
C    2.3605     0.2804    -0.8868 
C    4.5289     0.5439     0.0683 
C    3.6404    -0.2046    -0.6771 
F    5.0439     2.4213     1.3156 
F    5.7612     0.0855     0.2886 
F    4.0058    -1.3785    -1.1823 
F    1.4950    -0.4372    -1.5996 
F    0.7494     1.9106    -0.5863 
C    1.0712     0.3358     4.0932 
H    0.9257     0.3487     5.1773 
H    0.1720    -0.0739     3.6368 
H    1.8965    -0.3547     3.8951 
C    0.6642     2.2418     2.5494 
H   -0.1755     1.6436     2.2028 
C    4.4187     4.4167     5.1854 
C    4.5815     5.9419     5.2375 
H    4.0079     6.4054     6.0362 
H    5.6355     6.1639     5.4159 
H    4.3004     6.4024     4.2885 
C    4.7852     3.7769     6.5266 
H    5.8418     3.9726     6.7212 
H    4.2146     4.1868     7.3589 
H    4.6523     2.6934     6.5116 
C    5.3555     3.8750     4.0934 
H    5.0767     4.2220     3.0980 
H    6.3624     4.2346     4.3135 
H    5.3885     2.7864     4.0780 
C    1.3898     4.2753     5.9751 
C    1.6477     5.5538     6.7780 
H    1.7287     6.4289     6.1314 
H    0.7921     5.7106     7.4380 
H    2.5378     5.4903     7.4016 
C    0.0476     4.4378     5.2440 
H   -0.7311     4.5682     5.9989 
H    0.0482     5.3220     4.6048 
H   -0.1997     3.5682     4.6381 
C    1.3283     3.0605     6.9047 
H    1.0444     2.1613     6.3587 
H    2.2729     2.8773     7.4179 
H    0.5657     3.2437     7.6642 
H    3.2302     3.9797     1.9236 
H    2.3989     4.9059     3.6588 





















 
