66

P     3.2239     3.7611     5.2911 
C     1.9830     2.3793     5.3368 
H     1.9255     1.9481     6.3370 
H     1.0205     2.8495     5.1391 
C     2.2199     1.3033     4.2952 
C     1.5503     2.7900     2.3476 
H     1.2085     3.5099     3.0932 
H     0.6803     2.5768     1.7185 
B     2.6838     3.4506     1.3920 
C     2.3602     4.9273     0.7906 
F     4.5376     5.0072    -0.1145 
C     3.3494     5.5940     0.0772 
F     4.1698     7.4429    -1.1415 
C     3.1856     6.8527    -0.4712 
F     1.7905     8.7097    -0.8302 
C     1.9728     7.5012    -0.3158 
F    -0.2137     7.4942     0.5318 
C     0.9545     6.8781     0.3799 
F     0.1245     5.0792     1.5640 
C     1.1637     5.6156     0.9139 
C     3.1012     2.4126     0.2005 
C     2.2290     2.2514    -0.8686 
C     4.2218     1.6036     0.1487 
C     2.4546     1.3789    -1.9190 
C     4.4961     0.7161    -0.8770 
C     3.6018     0.6049    -1.9249 
F     5.1409     1.6394     1.1480 
F     5.5974    -0.0261    -0.8600 
F     3.8371    -0.2388    -2.9196 
F     1.5837     1.2722    -2.9146 
F     1.0940     2.9576    -0.9094 
C     2.6158    -0.0541     4.8072 
H     1.8592    -0.4354     5.4988 
H     2.7188    -0.7658     3.9891 
H     3.5601    -0.0344     5.3566 
C     2.0067     1.5206     2.9945 
H     2.1755     0.6827     2.3206 
C     4.7052     3.0717     6.2254 
C     5.6133     4.2017     6.7162 
H     5.1878     4.7280     7.5702 
H     6.5663     3.7717     7.0359 
H     5.8241     4.9262     5.9271 
C     4.3578     2.1615     7.4046 
H     3.8528     1.2512     7.0849 
H     5.2821     1.8624     7.9065 
H     3.7267     2.6596     8.1401 
C     5.4951     2.2684     5.1774 
H     5.9383     2.9359     4.4347 
H     6.3117     1.7325     5.6684 
H     4.8773     1.5364     4.6547 
C     2.3889     5.1476     6.2426 
C     3.2276     6.4249     6.1027 
H     4.1822     6.3644     6.6188 
H     3.4178     6.6572     5.0529 
H     2.6718     7.2606     6.5352 
C     1.0470     5.4180     5.5423 
H     0.6427     6.3614     5.9165 
H     1.1614     5.5144     4.4595 
H     0.3060     4.6463     5.7460 
C     2.1308     4.8433     7.7171 
H     1.5730     3.9136     7.8467 
H     3.0572     4.7734     8.2873 
H     1.5358     5.6501     8.1546 
O     3.9766     3.7069     2.2849 
H     3.7384     3.8710     3.2636 
H     4.6106     2.9740     2.2431 



































 
