68

P        3.272053000      3.342421000      5.194697000
C        2.175912000      1.913371000      4.833550000
H        2.303434000      1.215995000      5.665318000
H        1.157671000      2.294880000      4.892243000
C        2.386656000      1.190720000      3.515565000
C        0.768695000      2.630163000      2.179020000
H        0.393099000      3.032100000      3.116954000
H       -0.101851000      2.287705000      1.612165000
B        1.516849000      3.811981000      1.312452000
C        0.607293000      5.178370000      1.126782000
F        2.268061000      6.092087000     -0.282378000
C        1.090909000      6.223963000      0.350029000
F        0.958966000      8.379353000     -0.605275000
C        0.434523000      7.425246000      0.157503000
F       -1.439624000      8.774063000      0.610097000
C       -0.787958000      7.629353000      0.771661000
F       -2.488404000      6.810545000      2.163478000
C       -1.316925000      6.626488000      1.558890000
F       -1.222325000      4.531898000      2.505211000
C       -0.620097000      5.437169000      1.717998000
C        1.966713000      3.170048000     -0.139916000
C        1.134698000      3.216453000     -1.252378000
C        3.129305000      2.434805000     -0.335171000
C        1.435684000      2.626467000     -2.468909000
C        3.474539000      1.830431000     -1.532882000
C        2.620743000      1.930087000     -2.614083000
F        4.005797000      2.256197000      0.670617000
F        4.610541000      1.147323000     -1.646943000
F        2.927427000      1.354767000     -3.769803000
F        0.594396000      2.715201000     -3.493925000
F       -0.047963000      3.841677000     -1.191176000
C        3.381390000      0.061671000      3.498872000
H        3.292489000     -0.575465000      4.383871000
H        3.223729000     -0.559991000      2.619253000
H        4.411139000      0.423617000      3.452680000
C        1.694832000      1.496931000      2.416246000
H        1.888654000      0.865131000      1.552349000
C        4.588598000      2.839850000      6.394015000
C        5.520378000      4.027438000      6.659376000
H        5.041813000      4.801026000      7.257647000
H        6.384753000      3.664711000      7.219544000
H        5.883422000      4.472834000      5.730708000
C        4.041741000      2.281614000      7.710656000
H        3.355377000      1.448642000      7.553767000
H        4.885078000      1.898913000      8.289854000
H        3.541386000      3.033561000      8.315074000
C        5.391289000      1.735748000      5.692658000
H        5.759043000      2.051737000      4.714520000
H        6.254622000      1.494068000      6.315800000
H        4.804248000      0.826740000      5.572643000
C        2.335028000      4.873175000      5.678259000
C        3.193094000      6.088213000      5.295264000
H        4.135332000      6.132280000      5.837092000
H        3.412361000      6.093125000      4.227550000
H        2.625416000      6.988168000      5.541179000
C        1.023457000      4.958116000      4.888365000
H        0.565543000      5.922264000      5.119785000
H        1.198044000      4.918573000      3.816031000
H        0.307871000      4.185950000      5.170322000
C        2.011804000      4.880264000      7.174170000
H        1.477954000      3.979563000      7.485745000
H        2.901835000      4.995207000      7.790854000
H        1.360905000      5.733897000      7.373532000
C        3.870723000      4.668544000      1.746134000
O        2.711297000      4.230700000      2.159085000
O        4.768109000      4.942166000      2.512855000
H        3.982252000      4.775707000      0.660717000
H        3.982024000      3.677821000      4.039961000



















































