43

C    14.3936     6.4467    10.6144 
C    13.9935     7.6179    11.2703 
H    14.0262     8.5469    10.7132 
C    13.5535     7.6172    12.5817 
H    13.2538     8.5441    13.0542 
C    13.4941     6.4259    13.2980 
H    13.1517     6.4164    14.3243 
C    13.8745     5.2425    12.6893 
H    13.8242     4.3166    13.2425 
C    14.3126     5.2789    11.3693 
N    14.7251     4.0480    10.6613 
C    16.0853     3.4710    11.0995 
C    16.4871     2.4382    10.0420 
H    16.7110     2.9677     9.1096 
H    17.4174     1.9734    10.3730 
C    15.4138     1.3945     9.7712 
H    15.2129     0.8008    10.6664 
H    15.7657     0.6966     9.0106 
C    14.1497     2.0868     9.2847 
H    13.3650     1.3636     9.0571 
H    14.3706     2.6178     8.3525 
C    13.5731     3.0924    10.2863 
C    12.5112     3.9397     9.5861 
H    12.9299     4.5412     8.7773 
H    12.0112     4.6143    10.2801 
H    11.7664     3.2641     9.1637 
C    12.9334     2.3892    11.4768 
H    12.4897     3.1002    12.1693 
H    13.6059     1.7308    12.0185 
H    12.1220     1.7753    11.0834 
C    16.0848     2.8641    12.4969 
H    15.8032     3.5951    13.2508 
H    17.1103     2.5594    12.7109 
H    15.4573     1.9836    12.5966 
C    17.0830     4.6297    11.0721 
H    17.0451     5.1735    10.1270 
H    18.0846     4.2158    11.1934 
H    16.8992     5.3356    11.8809 
B    14.9080     6.5241     9.0766 
Cl   13.4835     7.1599     8.0003 
H    15.8514     7.2673     8.9857 
H    15.2290     5.4305     8.6042 
H    14.9621     4.4626     9.7298 






