61

P    3.8551    13.7301     0.4592 
C    3.5267    13.3356    -1.3234 
H    2.7459    13.9703    -1.7382 
C    4.8349    13.4640    -2.1314 
H    4.6221    13.0234    -3.1094 
H    5.5697    12.7805    -1.6859 
C    3.0957    11.8628    -1.3758 
H    2.9361    11.5812    -2.4175 
H    2.1795    11.6521    -0.8304 
H    3.8869    11.2231    -0.9771 
C    2.2826    13.3797     1.3647 
C    2.4077    13.2288     2.7437 
F    3.6008    13.3661     3.3188 
C    1.3344    12.9571     3.5714 
F    1.5029    12.8247     4.8788 
C    0.0720    12.8265     3.0195 
F   -0.9669    12.5655     3.7925 
C   -0.0971    12.9770     1.6548 
F   -1.3058    12.8600     1.1254 
C    0.9957    13.2586     0.8507 
F    0.7477    13.4045    -0.4468 
C    3.8013    15.5681     0.6533 
C    2.7433    16.3833     0.2733 
F    1.7081    15.8713    -0.3850 
C    2.7160    17.7409     0.5349 
F    1.6990    18.4856     0.1277 
C    3.7816    18.3292     1.1969 
F    3.7788    19.6255     1.4370 
C    4.8559    17.5509     1.5913 
F    5.8920    18.1099     2.2014 
C    4.8481    16.1959     1.3173 
F    5.9188    15.4962     1.7055 
C    4.5102    16.1107    -2.6816 
C    3.3959    15.9027    -3.4886 
F    3.2367    14.7292    -4.1118 
C    2.4231    16.8558    -3.7253 
F    1.3833    16.5859    -4.5023 
C    2.5424    18.1070    -3.1440 
F    1.6176    19.0312    -3.3421 
C    3.6455    18.3746    -2.3581 
F    3.7778    19.5616    -1.7740 
C    4.5954    17.3869    -2.1540 
F    5.6310    17.7424    -1.3724 
C    6.7026    14.7037    -3.5749 
C    7.7663    13.8347    -3.3565 
F    7.8803    13.2001    -2.1730 
C    8.7605    13.5742    -4.2797 
F    9.7531    12.7396    -3.9982 
C    8.7103    14.1996    -5.5138 
F    9.6472    13.9664    -6.4185 
C    7.6740    15.0714    -5.7871 
F    7.6183    15.6778    -6.9650 
C    6.7021    15.3086    -4.8252 
F    5.7434    16.1684    -5.1754 
B    5.5507    14.8859    -2.4325 
C    7.6145    15.9420    -0.9727 
H    7.6687    16.5854    -1.8428 
H    7.5921    16.5363    -0.0629 
H    8.4412    15.2360    -0.9679 
O    6.3674    15.2136    -1.0597 
H    6.3854    14.4353    -0.4808 































 
