58

P    3.4325    13.3841     0.7480 
C    3.2431    14.0699    -0.9664 
H    3.0286    15.1352    -0.9212 
C    4.5899    13.8286    -1.6904 
H    4.5360    12.9056    -2.2689 
H    5.3938    13.6497    -0.9656 
C    2.0753    13.3406    -1.6332 
H    1.8730    13.7626    -2.6173 
H    1.1564    13.4214    -1.0517 
H    2.3085    12.2824    -1.7621 
C    2.0283    14.0579     1.7505 
C    1.9313    13.5520     3.0444 
F    2.8641    12.7129     3.4928 
C    0.9122    13.8912     3.9139 
F    0.8675    13.3867     5.1383 
C   -0.0698    14.7705     3.4912 
F   -1.0554    15.1076     4.3047 
C   -0.0082    15.3011     2.2156 
F   -0.9389    16.1547     1.8123 
C    1.0334    14.9503     1.3718 
F    1.0362    15.5278     0.1721 
C    4.7615    14.4881     1.4135 
C    4.6685    15.8738     1.4838 
F    3.5614    16.4974     1.0831 
C    5.7016    16.6646     1.9551 
F    5.5803    17.9858     1.9994 
C    6.8751    16.0648     2.3889 
F    7.8662    16.8100     2.8423 
C    7.0021    14.6890     2.3420 
F    8.1238    14.1165     2.7472 
C    5.9514    13.9247     1.8565 
F    6.1305    12.6114     1.8119 
C    4.0872    15.5240    -3.8152 
C    3.3987    14.6006    -4.5934 
F    3.5735    13.2926    -4.3926 
C    2.5431    14.9524    -5.6219 
F    1.9110    14.0226    -6.3235 
C    2.3538    16.2894    -5.9271 
F    1.5387    16.6439    -6.9062 
C    3.0358    17.2487    -5.2033 
F    2.8846    18.5347    -5.4886 
C    3.8808    16.8419    -4.1863 
F    4.5460    17.8435    -3.5516 
C    6.6410    14.8470    -3.0846 
C    7.6660    14.9040    -2.1503 
F    7.3751    15.1962    -0.8534 
C    9.0009    14.6924    -2.4316 
F    9.9228    14.7767    -1.4827 
C    9.3638    14.3880    -3.7323 
F   10.6329    14.1771    -4.0383 
C    8.3858    14.3082    -4.7064 
F    8.7246    14.0147    -5.9532 
C    7.0592    14.5367    -4.3717 
F    6.1792    14.4301    -5.3687 
B    5.0861    15.0414    -2.6277 
O    5.0946    16.3081    -1.5842 
H    5.1578    17.1771    -2.0143 
H    5.7872    16.2035    -0.9104 
































 
