77

 C                 -0.80591300    0.10033800    0.89732800
 C                  0.57515400    0.19672100    0.93994500
 C                  1.31154600    0.96801600    0.04587100
 C                  0.54666500    1.65936000   -0.89342500
 C                 -0.82700400    1.59476500   -0.92164400
 C                 -1.55723900    0.80179600   -0.03894700
 F                  1.14508200    2.45530500   -1.78723200
 F                 -1.47477600    2.30127000   -1.84836500
 F                 -1.37979500   -0.71904400    1.77486200
 F                  1.20208600   -0.52971000    1.86729500
 B                  2.87463600    1.03403700    0.07949900
 P                 -3.37722300    1.01774700   -0.08044300
 C                  3.62750100    0.95367600    1.45277800
 C                  3.12823400    1.55385300    2.60538600
 C                  4.83856700    0.28356100    1.59977900
 C                  3.78226500    1.51289300    3.82092300
 C                  5.51197000    0.20145900    2.80423400
 C                  4.98086100    0.82571500    3.91973600
 C                  3.68611900    1.14349000   -1.25571400
 C                  3.25455100    0.55205300   -2.44133300
 C                  4.88485100    1.85063200   -1.33637600
 C                  3.95519800    0.64666900   -3.62849600
 C                  5.60115200    1.98330800   -2.51079300
 C                  5.13337700    1.37290700   -3.66216200
 C                 -4.02106200    0.13681100    1.39435600
 C                 -4.32578400   -1.23447400    1.46073800
 C                 -4.30650200    0.96391300    2.49641200
 C                 -4.94299600   -1.73269800    2.60165900
 C                 -4.91248500    0.41597600    3.62243800
 C                 -5.25472900   -0.92613200    3.68867600
 H                 -5.16964600   -2.79250900    2.64991400
 H                 -5.12029500    1.05885500    4.47052200
 C                 -4.07081400    0.15825700   -1.54602700
 C                 -3.39938300   -0.61584000   -2.51114200
 C                 -5.45685200    0.38919700   -1.69552800
 C                 -4.12640300   -1.14011800   -3.57709800
 C                 -6.13511600   -0.17180000   -2.77047100
 C                 -5.48930500   -0.93792700   -3.72865300
 H                 -3.60153600   -1.74099400   -4.31170300
 H                 -7.20156500    0.00359000   -2.86115500
 F                  1.97590300    2.22744000    2.57060200
 F                  3.27679600    2.11484300    4.88792700
 F                  5.61483000    0.76609500    5.07622700
 F                  6.65574100   -0.46064300    2.90067500
 F                  5.39490200   -0.33493100    0.55974800
 F                  5.38701900    2.45209900   -0.26216900
 F                  6.72868400    2.67883900   -2.54553900
 F                  5.81134400    1.48063800   -4.78970900
 F                  2.13164300   -0.16408600   -2.46931600
 F                  3.51278000    0.05523300   -4.72926400
 C                 -3.96635800    2.43348900    2.51567500
 H                 -2.90422200    2.60603900    2.33263800
 H                 -4.51228400    2.97972600    1.74478400
 H                 -4.21466700    2.86273400    3.48485800
 C                 -3.97733000   -2.20994100    0.37037200
 H                 -4.69046200   -2.16920300   -0.45507500
 H                 -2.99030000   -2.00483100   -0.04202300
 H                 -3.97434600   -3.22384200    0.76770000
 C                 -5.94605900   -1.49523200    4.89517700
 H                 -7.02206500   -1.56644400    4.72157900
 H                 -5.58298800   -2.49836900    5.11885200
 H                 -5.79108800   -0.86772300    5.77188300
 C                 -1.92914000   -0.94586500   -2.48352600
 H                 -1.32039500   -0.08990600   -2.77965400
 H                 -1.58623900   -1.26976000   -1.50272800
 H                 -1.72226000   -1.74849300   -3.18912700
 C                 -6.25676400    1.21204900   -0.71707600
 H                 -6.36083500    0.70615100    0.24533700
 H                 -5.78100600    2.17624900   -0.52503900
 H                 -7.25442300    1.39605200   -1.11137200
 C                 -6.23381500   -1.50170400   -4.90559600
 H                 -6.25621200   -0.78056800   -5.72568500
 H                 -5.75685600   -2.40855100   -5.27612200
 H                 -7.26551000   -1.73553000   -4.64401700
 O                  2.80613400    3.86277600    0.32801700
 C                  1.70306700    4.15466000    0.52521100
 O                  0.60493000    4.44490700    0.71752100

