76

C -0.7842     0.4722     1.1403 
C  0.5801     0.6708     1.1792 
C  1.2085     1.7117     0.5037 
C  0.3540     2.5826    -0.1728 
C -1.0101     2.4020    -0.2248 
C -1.6123     1.3249     0.4223 
F  0.8496     3.6132    -0.8519 
F -1.7741     3.2337    -0.9443 
F -1.3064    -0.6176     1.7138 
F  1.2825    -0.2399     1.8473 
B  2.8230     1.9191     0.3037 
P -3.3118     0.9705     0.0958 
C  3.7277     1.1181     1.3905 
C  3.5163     1.3632     2.7406 
C  4.7667     0.2435     1.1206 
C  4.2576     0.7954     3.7576 
C  5.5417    -0.3496     2.1079 
C  5.2866    -0.0728     3.4357 
C  3.0745     1.5196    -1.2612 
C  2.6418     0.3135    -1.7911 
C  3.6524     2.3856    -2.1759 
C  2.7503    -0.0271    -3.1258 
C  3.7937     2.0818    -3.5229 
C  3.3364     0.8691    -4.0020 
C -4.1470     0.2396     1.5062 
C -4.4130    -1.1374     1.5923 
C -4.5374     1.1227     2.5313 
C -5.0989    -1.5980     2.7078 
C -5.2163     0.6025     3.6239 
C -5.5101    -0.7510     3.7296 
H -5.3057    -2.6590     2.7869 
H -5.5162     1.2747     4.4193 
C -3.6197     0.1826    -1.4885 
C -2.6435    -0.5256    -2.2181 
C -4.9319     0.3317    -1.9834 
C -3.0239    -1.0649    -3.4416 
C -5.2481    -0.2365    -3.2082 
C -4.3075    -0.9341    -3.9552 
H -2.2836    -1.6131    -4.0122 
H -6.2572    -0.1294    -3.5890 
F  2.5176     2.1820     3.1092 
F  3.9954     1.0655     5.0363 
F  6.0175    -0.6335     4.3952 
F  6.5290    -1.1843     1.7869 
F  5.0854    -0.0832    -0.1393 
F  4.1067     3.5792    -1.7919 
F  4.3554     2.9484    -4.3631 
F  3.4535     0.5660    -5.2918 
F  2.0771    -0.6031    -0.9837 
F  2.2967    -1.1992    -3.5779 
C -4.2510     2.6016     2.4939 
H -3.2071     2.8149     2.2558 
H -4.8759     3.1111     1.7554 
H -4.4643     3.0466     3.4629 
C -3.9798    -2.1371     0.5541 
H -4.5827    -2.0667    -0.3531 
H -2.9364    -1.9981     0.2724 
H -4.0819    -3.1452     0.9502 
C -6.2119    -1.2929     4.9403 
H -6.7970    -2.1778     4.6940 
H -5.4806    -1.5792     5.6993 
H -6.8723    -0.5475     5.3809 
C -1.2219    -0.7607    -1.7731 
H -0.6422     0.1629    -1.7316 
H -1.1625    -1.2285    -0.7899 
H -0.7231    -1.4237    -2.4763 
C -6.0069     1.0874    -1.2436 
H -6.1219     0.7487    -0.2120 
H -5.7958     2.1599    -1.2238 
H -6.9641     0.9562    -1.7427 
C -4.6591    -1.5087    -5.2959 
H -4.4277    -0.7881    -6.0833 
H -4.0872    -2.4130    -5.4988 
H -5.7207    -1.7424    -5.3604 
H -3.8869     2.2293    -0.0459 
H  3.0349     3.0949     0.4447 



