77

 C                 -0.80187400    0.42153800    0.88084100
 C                  0.57130200    0.61844200    0.93810200
 C                  1.23063500    1.56448900    0.17248200
 C                  0.39899900    2.30209000   -0.65381400
 C                 -0.96523900    2.13492800   -0.71440700
 C                 -1.62122400    1.17312100    0.04784300
 F                  0.94458500    3.24693600   -1.47150700
 F                 -1.66149100    2.89452900   -1.56228500
 F                 -1.29639700   -0.55630500    1.63552100
 F                  1.26133400   -0.19309600    1.74561300
 B                  2.83482300    1.74974400    0.14559500
 P                 -3.45790100    1.20808400   -0.01199900
 C                  3.59977200    1.35909900    1.51126500
 C                  3.19685800    1.94869900    2.70535500
 C                  4.63360300    0.44081500    1.62476500
 C                  3.77398300    1.66756600    3.92870600
 C                  5.23660400    0.12745100    2.83320100
 C                  4.80551200    0.74606100    3.99096700
 C                  3.52110700    1.21002900   -1.22550400
 C                  2.98677400    0.21816100   -2.03549800
 C                  4.74159900    1.71042300   -1.65250200
 C                  3.61202500   -0.23302100   -3.18875900
 C                  5.40138100    1.29925800   -2.79185000
 C                  4.82383600    0.31079600   -3.57116300
 C                 -4.00774400    0.17882300    1.40680200
 C                 -4.17827300   -1.21729700    1.38941300
 C                 -4.37707200    0.90538300    2.55382600
 C                 -4.75033800   -1.83990900    2.49262500
 C                 -4.93212500    0.23564400    3.63946200
 C                 -5.14409100   -1.13452200    3.62222600
 H                 -4.87326800   -2.91769200    2.47537100
 H                 -5.20473300    0.80363600    4.52203100
 C                 -4.04537800    0.34218000   -1.52231200
 C                 -3.28389900   -0.28302100   -2.52844600
 C                 -5.44953700    0.39947000   -1.66419700
 C                 -3.94083900   -0.84001600   -3.62222000
 C                 -6.05452800   -0.18594700   -2.77049400
 C                 -5.31977700   -0.81031700   -3.76577300
 H                 -3.34567600   -1.32716300   -4.38694700
 H                 -7.13514800   -0.14499600   -2.85431800
 F                  2.18731400    2.82407500    2.70349800
 F                  3.34959000    2.26065200    5.03720400
 F                  5.37370400    0.46055200    5.15144500
 F                  6.22340000   -0.75815600    2.88623300
 F                  5.10063200   -0.20952200    0.55514700
 F                  5.36322400    2.65877100   -0.90798500
 F                  6.56641000    1.82794300   -3.13993900
 F                  5.42796500   -0.10753900   -4.67079600
 F                  1.83303200   -0.37523700   -1.72566300
 F                  3.05607000   -1.18261900   -3.92784300
 C                 -4.18233400    2.39731300    2.66335500
 H                 -3.14176700    2.68197900    2.49766200
 H                 -4.77828500    2.93278400    1.92254300
 H                 -4.47162700    2.74128500    3.65502900
 C                 -3.73499600   -2.09162000    0.24812900
 H                 -4.45957900   -2.09230800   -0.56857000
 H                 -2.78306500   -1.75741800   -0.16095200
 H                 -3.61334300   -3.11682400    0.59497100
 C                 -5.78384300   -1.83862600    4.78529600
 H                 -6.84878500   -1.99517900    4.59961100
 H                 -5.33227500   -2.81716100    4.94869700
 H                 -5.68790600   -1.25632500    5.70086900
 C                 -1.78277200   -0.41797400   -2.51244400
 H                 -1.29029800    0.53884700   -2.69164600
 H                 -1.40419900   -0.80830900   -1.56926600
 H                 -1.46765800   -1.09765200   -3.30214400
 C                 -6.34766700    1.05428600   -0.64478300
 H                 -6.40375500    0.47024300    0.27650100
 H                 -5.98656000    2.04870500   -0.37359200
 H                 -7.35549300    1.15358200   -1.04390700
 C                 -5.98836700   -1.40459300   -4.97311300
 H                 -6.06389700   -0.66469600   -5.77313800
 H                 -5.42212800   -2.25151500   -5.35994300
 H                 -6.99767000   -1.74177500   -4.73874600
 O                  3.01968500    3.38070800    0.09647100
 H                  3.94693000    3.61286100   -0.07581000
 H                  2.44802500    3.76810900   -0.59028400

