79

 C                 -0.97140800    0.65010800    1.02434300
 C                  0.39596300    0.88754300    1.10402400
 C                  1.08846500    1.64889200    0.17831700
 C                  0.28872900    2.21244600   -0.81021100
 C                 -1.06920900    2.00097200   -0.88990400
 C                 -1.75247200    1.18876700    0.01178300
 F                  0.84989700    2.99423500   -1.74451500
 F                 -1.74093500    2.56510600   -1.89839400
 F                 -1.49553300   -0.13572400    1.96539000
 F                  1.02706500    0.33670900    2.14721600
 B                  2.67903300    1.95679300    0.17726800
 P                 -3.57977200    1.15165700   -0.16420800
 C                  3.57370700    1.25173400    1.33613900
 C                  4.37027400    1.84857700    2.29689800
 C                  3.63952700   -0.13623100    1.30463000
 C                  5.15770300    1.13407000    3.18702200
 C                  4.40955300   -0.88956500    2.16774700
 C                  5.17694900   -0.24466300    3.12396200
 C                  3.43718200    1.73712600   -1.23912700
 C                  2.98686400    0.93836100   -2.28008800
 C                  4.68401800    2.31676400   -1.43602000
 C                  3.70613000    0.74688000   -3.44916600
 C                  5.43088800    2.15670900   -2.58842000
 C                  4.93323500    1.36332700   -3.60663300
 C                 -4.20165300    0.29633500    1.34022400
 C                 -4.25604300   -1.09777200    1.51957500
 C                 -4.75144500    1.13908200    2.32226000
 C                 -4.88893000   -1.60931500    2.64580300
 C                 -5.36487400    0.58122900    3.44012000
 C                 -5.45881900   -0.79107400    3.61280600
 H                 -4.92082300   -2.68542200    2.78080500
 H                 -5.78036100    1.24033900    4.19441600
 C                 -4.04094500    0.05186200   -1.56531500
 C                 -3.19907200   -0.67780200   -2.42780800
 C                 -5.43595500    0.02349600   -1.78795800
 C                 -3.77250900   -1.42102900   -3.45658400
 C                 -5.95424600   -0.74686600   -2.82247000
 C                 -5.14062900   -1.47829700   -3.67267800
 H                 -3.11608700   -1.98627900   -4.10915300
 H                 -7.02900600   -0.76718200   -2.96735600
 F                  4.43149200    3.18956200    2.42387600
 F                  5.89422200    1.76817700    4.09361000
 F                  5.92432700   -0.94372100    3.96540200
 F                  4.42332400   -2.21388000    2.09344000
 F                  2.91777600   -0.79589300    0.39421300
 F                  5.22555100    3.06847300   -0.46809800
 F                  6.61473900    2.74435200   -2.72297200
 F                  5.63042600    1.19086200   -4.72014400
 F                  1.81745800    0.29909100   -2.20192200
 F                  3.22724000   -0.02352300   -4.41900300
 C                 -4.69933400    2.64343300    2.21895000
 H                 -3.67673300    3.00426100    2.09682300
 H                 -5.26431900    3.00386000    1.35775400
 H                 -5.11468800    3.09537400    3.11852800
 C                 -3.62536400   -2.07596200    0.56713000
 H                 -4.26640800   -2.27022100   -0.29503900
 H                 -2.67427100   -1.70506900    0.18882400
 H                 -3.44214700   -3.02166500    1.07525900
 C                 -6.15549500   -1.38332300    4.80531100
 H                 -7.14281700   -1.75761900    4.52636300
 H                 -5.59074000   -2.22281100    5.21166000
 H                 -6.28878600   -0.64337000    5.59338700
 C                 -1.69543900   -0.73368500   -2.33170900
 H                 -1.23827000    0.19770200   -2.66847200
 H                 -1.33739900   -0.92820900   -1.32276300
 H                 -1.31836500   -1.52694600   -2.97453500
 C                 -6.41809000    0.78672300   -0.93428400
 H                 -6.51774400    0.34570500    0.05985400
 H                 -6.10609500    1.82438800   -0.79761100
 H                 -7.39993800    0.78506600   -1.40435600
 C                 -5.71542900   -2.27606500   -4.80893500
 H                 -5.77153700   -1.66821600   -5.71477200
 H                 -5.09646400   -3.14453800   -5.03292300
 H                 -6.72344600   -2.62007500   -4.57878400
 O                  2.74443700    3.56469500    0.37913600
 C                  2.29117400    4.17529800    1.33171100
 H                  2.39728800    5.26058500    1.36475600
 O                  1.67755000    3.57771000    2.30670200
 H                  1.40387100    4.19077100    3.00243000