64

P    5.4048     5.0488    12.2141 
B    5.7097     7.1859    15.1067 
C    6.4039     4.3346    13.5922 
C    7.1719     3.2877    13.1301 
H    7.2502     3.1386    12.0597 
C    7.7807     2.3493    13.9824 
H    8.3763     1.5464    13.5687 
C    7.5275     2.4229    15.3173 
H    7.8976     1.6661    15.9987 
C    6.7795     3.5004    15.8519 
C    6.5181     3.5128    17.2449 
H    6.8779     2.6824    17.8413 
C    5.8275     4.5369    17.8137 
H    5.6034     4.5392    18.8722 
C    5.4788     5.6423    17.0153 
H    5.0451     6.5057    17.5048 
C    5.7266     5.7068    15.6567 
C    6.2947     4.5477    15.0120 
C    3.6442     4.9130    12.7337 
C    2.7742     5.9889    12.4788 
C    1.4147     5.8479    12.7323 
H    0.7560     6.6865    12.5299 
C    0.8790     4.6765    13.2470 
C    1.7438     3.6133    13.4630 
H    1.3446     2.6737    13.8300 
C    3.1064     3.6985    13.1955 
C    3.2621     7.3142    11.9543 
H    2.4192     7.9698    11.7401 
H    3.8464     7.2051    11.0384 
H    3.8981     7.8190    12.6899 
C   -0.5854     4.5677    13.5677 
H   -1.1835     5.1808    12.8937 
H   -0.7830     4.9088    14.5868 
H   -0.9303     3.5366    13.4927 
C    3.9417     2.4586    13.3752 
H    3.2974     1.5879    13.4887 
H    4.5864     2.5196    14.2542 
H    4.5897     2.2926    12.5121 
C    5.0016     8.3582    15.9080 
C    5.8259     9.2718    16.5999 
C    5.2572    10.2927    17.3463 
H    5.9041    10.9768    17.8865 
C    3.8760    10.4507    17.4365 
C    3.0738     9.5336    16.7797 
H    1.9946     9.6181    16.8588 
C    3.6144     8.4882    16.0296 
C    7.3290     9.1361    16.5790 
H    7.6411     8.0938    16.6681 
H    7.7754     9.6940    17.4011 
H    7.7544     9.5220    15.6504 
C    3.2868    11.5830    18.2309 
H    3.7695    11.6714    19.2051 
H    2.2185    11.4407    18.3886 
H    3.4260    12.5331    17.7108 
C    2.6670     7.5248    15.3675 
H    2.2092     7.9757    14.4843 
H    1.8564     7.2508    16.0449 
H    3.1606     6.6071    15.0487 
C    6.6412     8.7002    13.4008 
H    6.2963     8.5703    12.3720 
H    6.0457     9.4764    13.8843 
H    7.6892     8.9982    13.3763 
O    6.5378     7.4612    14.0682 
H    5.5465     6.4157    12.4445 










 
