63

P        3.445615000      5.667141000     14.503384000
B        4.794392000      6.865178000     16.904452000
C        4.590131000      4.309260000     15.022267000
C        4.448668000      3.062961000     14.459425000
H        3.605633000      2.866101000     13.807644000
C        5.399696000      2.046295000     14.658612000
H        5.250762000      1.076379000     14.202401000
C        6.524019000      2.308434000     15.386661000
H        7.294572000      1.556502000     15.508656000
C        6.709644000      3.571838000     15.991815000
C        7.900879000      3.842313000     16.712714000
H        8.645981000      3.058779000     16.786256000
C        8.110885000      5.059724000     17.284896000
H        9.028929000      5.269326000     17.817854000
C        7.101178000      6.042067000     17.209248000
H        7.257446000      6.990024000     17.712744000
C        5.906070000      5.821233000     16.559591000
C        5.711703000      4.578785000     15.866014000
C        3.004514000      5.158633000     12.801238000
C        4.013037000      5.205508000     11.822879000
C        3.704574000      4.880512000     10.507543000
H        4.491374000      4.915102000      9.761349000
C        2.419824000      4.519922000     10.124611000
C        1.433462000      4.489418000     11.101025000
H        0.423100000      4.211162000     10.820882000
C        1.696348000      4.803175000     12.431136000
C        5.430023000      5.579743000     12.166942000
H        5.990141000      5.829118000     11.267089000
H        5.944169000      4.757748000     12.671235000
H        5.464584000      6.439072000     12.840228000
C        2.097685000      4.208234000      8.689808000
H        2.962088000      3.791851000      8.173204000
H        1.799066000      5.114139000      8.157420000
H        1.275683000      3.496610000      8.616071000
C        0.559085000      4.741318000     13.418048000
H       -0.365987000      4.474543000     12.910134000
H        0.402565000      5.698135000     13.918740000
H        0.743738000      3.997361000     14.195711000
C        5.087653000      8.398877000     17.089839000
C        5.578736000      9.199307000     16.040276000
C        5.856200000     10.540702000     16.268606000
H        6.227311000     11.148119000     15.449744000
C        5.685507000     11.122588000     17.519642000
C        5.234813000     10.320013000     18.557578000
H        5.126324000     10.746543000     19.549179000
C        4.929762000      8.976018000     18.363705000
C        5.791466000      8.638471000     14.659513000
H        6.357149000      7.705925000     14.695683000
H        6.332451000      9.346817000     14.033490000
H        4.836500000      8.414529000     14.180000000
C        5.976770000     12.581480000     17.732916000
H        6.878959000     12.883850000     17.200675000
H        6.106796000     12.808512000     18.790250000
H        5.154377000     13.194769000     17.358162000
C        4.465685000      8.172815000     19.556558000
H        3.374887000      8.120218000     19.610377000
H        4.808557000      8.637951000     20.479788000
H        4.837177000      7.147824000     19.537016000
C        2.449467000      7.030631000     17.454538000
O        3.584577000      6.310886000     17.324951000
O        1.436179000      6.545674000     17.841598000
H        2.557287000      8.081464000     17.149952000
H        2.298215000      5.231188000     15.184650000
































