88

P     4.0204    14.1481     7.1546 
C     4.7415    15.6506     7.9377 
C     3.8768    16.3736     8.7876 
C     4.3387    17.5188     9.4289 
H     3.6551    18.0621    10.0728 
C     5.6402    17.9695     9.2871 
C     6.5019    17.2017     8.5170 
H     7.5424    17.4986     8.4405 
C     6.0931    16.0489     7.8535 
C     2.4577    15.9554     9.0763 
H     2.1629    16.3165    10.0609 
H     2.3357    14.8718     9.0600 
H     1.7601    16.3621     8.3429 
C     6.1081    19.2332     9.9516 
H     6.0063    20.0836     9.2737 
H     7.1578    19.1637    10.2368 
H     5.5212    19.4500    10.8437 
C     7.1683    15.2751     7.1301 
H     8.1450    15.6552     7.4257 
H     7.0919    15.3631     6.0468 
H     7.1375    14.2128     7.3677 
C     5.1237    13.4716     5.8331 
C     5.6500    12.1818     6.0482 
C     6.2469    11.4981     4.9940 
H     6.6468    10.5050     5.1706 
C     6.3643    12.0598     3.7289 
C     5.9424    13.3707     3.5636 
H     6.0940    13.8586     2.6061 
C     5.3427    14.0934     4.5912 
C     5.0569    15.5501     4.3350 
H     5.8178    15.9504     3.6636 
H     5.0716    16.1327     5.2542 
H     4.0844    15.7025     3.8662 
C     5.6845    11.5338     7.4139 
H     6.3853    10.6995     7.4063 
H     4.7206    11.1421     7.7429 
H     6.0019    12.2399     8.1817 
C     6.9354    11.2780     2.5811 
H     7.6317    10.5149     2.9278 
H     7.4547    11.9292     1.8786 
H     6.1344    10.7745     2.0345 
Al    1.3449    13.0831     5.5647 
C     1.4738    12.6264     3.6102 
C     1.8513    13.8686     2.7937 
H     1.9357    13.6051     1.7300 
H     2.8177    14.2689     3.1071 
H     1.1127    14.6697     2.8749 
C     0.1565    12.0803     3.0525 
H    -0.6355    12.8326     3.0904 
H    -0.1972    11.2012     3.6005 
H     0.2761    11.7846     2.0007 
C     2.5751    11.5834     3.3711 
H     2.7806    11.4925     2.2951 
H     2.2821    10.5892     3.7161 
H     3.5191    11.8495     3.8599 
C    -0.3645    12.7368     6.6087 
C    -0.4507    11.2383     6.9459 
H    -1.3786    11.0309     7.4956 
H     0.3723    10.9047     7.5803 
H    -0.4702    10.6119     6.0479 
C    -1.6959    13.0736     5.9242 
H    -1.8474    12.4708     5.0268 
H    -1.7989    14.1193     5.6338 
H    -2.5288    12.8534     6.6061 
C    -0.2812    13.4901     7.9426 
H    -0.2659    14.5765     7.8172 
H     0.6229    13.2203     8.4996 
H    -1.1410    13.2467     8.5823 
C     2.5596    14.6270     6.1446 
C     2.3830    15.9217     5.8473 
H     3.1041    16.6742     6.1730 
C     1.3155    16.4691     4.9935 
C     1.6218    17.4674     4.0664 
H     2.6272    17.8722     4.0363 
C     0.6643    17.9169     3.1708 
H     0.9220    18.6758     2.4431 
C    -0.6239    17.3958     3.2035 
H    -1.3706    17.7475     2.5037 
C    -0.9517    16.4368     4.1522 
H    -1.9602    16.0455     4.2041 
C     0.0116    15.9849     5.0416 
H    -0.2457    15.2689     5.8084 
C     2.6451    10.3469     6.3498 
H     1.8043     9.9525     5.7876 
H     2.6682     9.8776     7.3330 
H     3.5745    10.1652     5.8093 
O     2.4393    11.7514     6.4971 
H     3.0501    12.1672     7.1470 








 
