86

P     3.6069    14.7348     6.6510 
C     4.0658    16.3871     7.3251 
C     3.4134    16.7483     8.5235 
C     3.7611    17.9274     9.1674 
H     3.2489    18.1947    10.0857 
C     4.7414    18.7759     8.6657 
C     5.3455    18.4301     7.4681 
H     6.0852    19.0968     7.0379 
C     5.0198    17.2611     6.7805 
C     2.3167    15.9023     9.1163 
H     1.9103    16.3772    10.0079 
H     2.6761    14.9064     9.3811 
H     1.5017    15.7658     8.4013 
C     5.1215    20.0292     9.4027 
H     4.2357    20.5766     9.7269 
H     5.7235    20.6878     8.7781 
H     5.7022    19.7895    10.2959 
C     5.6949    17.0233     5.4565 
H     6.1004    17.9589     5.0733 
H     4.9922    16.6306     4.7232 
H     6.5156    16.3081     5.5391 
C     5.1750    14.0607     5.9363 
C     6.1152    13.6434     6.9137 
C     7.2968    13.0291     6.5212 
H     8.0039    12.7225     7.2848 
C     7.5993    12.7937     5.1847 
C     6.6764    13.2041     4.2374 
H     6.8919    13.0426     3.1866 
C     5.4794    13.8367     4.5782 
C     4.5800    14.2275     3.4391 
H     5.1604    14.3305     2.5226 
H     4.0391    15.1510     3.6199 
H     3.8268    13.4566     3.2582 
C     5.8857    13.8478     8.3890 
H     6.6811    13.3771     8.9643 
H     4.9268    13.4291     8.7046 
H     5.8589    14.9091     8.6448 
C     8.8973    12.1477     4.7901 
H     9.7207    12.8604     4.8713 
H     8.8647    11.7908     3.7616 
H     9.1309    11.3047     5.4411 
Al    1.3224    13.2733     4.8331 
C     0.8133    13.0251     2.8966 
C     1.2013    14.1895     1.9759 
H     0.9963    13.9204     0.9304 
H     2.2599    14.4505     2.0412 
H     0.6271    15.0919     2.1938 
C    -0.7018    12.8203     2.7465 
H    -1.2705    13.6912     3.0778 
H    -1.0642    11.9518     3.3004 
H    -0.9516    12.6556     1.6894 
C     1.4874    11.7521     2.3589 
H     1.1300    11.5437     1.3416 
H     1.2633    10.8725     2.9702 
H     2.5748    11.8449     2.3077 
C     0.1881    12.3493     6.2238 
C     0.0772    10.8600     5.8648 
H    -0.5110    10.3295     6.6263 
H     1.0525    10.3672     5.8157 
H    -0.4176    10.6972     4.9051 
C    -1.2369    12.9094     6.3258 
H    -1.7474    12.9540     5.3606 
H    -1.2472    13.9118     6.7619 
H    -1.8430    12.2751     6.9871 
C     0.8020    12.4455     7.6249 
H     0.9326    13.4806     7.9475 
H     1.7807    11.9625     7.6922 
H     0.1542    11.9442     8.3580 
C     2.2987    14.9572     5.4077 
C     1.8947    16.2186     5.1705 
H     2.4812    17.0648     5.5334 
C     0.7061    16.6217     4.3997 
C     0.7927    17.7091     3.5262 
H     1.7289    18.2499     3.4492 
C    -0.2883    18.0789     2.7438 
H    -0.1967    18.9100     2.0564 
C    -1.4909    17.3875     2.8420 
H    -2.3383    17.6803     2.2362 
C    -1.6017    16.3321     3.7350 
H    -2.5403    15.8014     3.8369 
C    -0.5118    15.9547     4.5063 
H    -0.6178    15.1506     5.2236 
C     3.7411    11.6818     5.7006 
O     2.8908    12.0343     4.9079 
H     3.6745    11.9350     6.7625 
H     4.5852    11.0770     5.3512 




















 
