58

P    0.6345     2.4974    10.2320 
C    1.6057     2.7869     8.7798 
H    1.8435     1.7627     8.4669 
C    0.9741     3.5284     7.5955 
H    0.2888     2.8486     7.0861 
H    0.3773     4.3687     7.9402 
C    2.0186     4.0349     6.6078 
H    2.6852     4.7587     7.0790 
H    1.5300     4.5248     5.7659 
H    2.6271     3.2172     6.2183 
C   -0.6238     1.2132    10.2704 
C   -0.9306     0.4117     9.1782 
F   -0.3445     0.6133     8.0056 
C   -1.8540    -0.6132     9.2728 
F   -2.1356    -1.3631     8.2225 
C   -2.4891    -0.8479    10.4819 
F   -3.3709    -1.8199    10.5797 
C   -2.2056    -0.0608    11.5881 
F   -2.8220    -0.2864    12.7335 
C   -1.2782     0.9562    11.4723 
F   -1.0321     1.7093    12.5339 
C   -0.1335     3.9927    10.8638 
C   -1.2393     4.5117    10.2009 
F   -1.7817     3.8304     9.1947 
C   -1.7900     5.7281    10.5479 
F   -2.8383     6.2067     9.9024 
C   -1.2188     6.4546    11.5832 
F   -1.7234     7.6219    11.9165 
C   -0.1255     5.9539    12.2724 
F    0.4107     6.6526    13.2553 
C    0.4008     4.7249    11.9167 
F    1.4435     4.2728    12.5934 
C    3.2908     4.7344    10.1190 
C    2.4794     5.8461     9.9934 
F    1.3904     5.8259     9.2044 
C    2.6859     7.0382    10.6718 
F    1.8224     8.0430    10.5394 
C    3.7820     7.1688    11.4991 
F    3.9991     8.2974    12.1546 
C    4.6554     6.1013    11.6279 
F    5.7251     6.2183    12.4020 
C    4.3973     4.9268    10.9464 
F    5.2860     3.9464    11.0995 
C    4.2913     2.7477     8.5332 
C    4.4961     1.3956     8.2852 
F    3.6795     0.4791     8.8288 
C    5.5034     0.9056     7.4735 
F    5.6460    -0.3997     7.2774 
C    6.3644     1.7944     6.8556 
F    7.3347     1.3503     6.0715 
C    6.1960     3.1514     7.0597 
F    7.0102     4.0135     6.4633 
C    5.1748     3.5974     7.8826 
F    5.0680     4.9252     8.0087 
B    3.0871     3.2272     9.5141 
O    1.9112     1.1795    12.2530 
O    3.1542     2.3130    10.7550 
C    2.0749     1.8872    11.3107 








































 
