58

P    1.0554     2.2978    10.8670 
C    1.8329     2.5209     9.1996 
H    2.0094     1.4788     8.9137 
C    0.9043     3.1253     8.1348 
H    0.0643     2.4413     7.9937 
H    0.4756     4.0584     8.4896 
C    1.5608     3.3821     6.7826 
H    2.3011     4.1805     6.8469 
H    0.8069     3.6905     6.0578 
H    2.0536     2.4880     6.3957 
C   -0.4868     1.3201    10.6539 
C   -0.6715     0.3454     9.6804 
F    0.2588     0.1053     8.7566 
C   -1.8098    -0.4419     9.6197 
F   -1.9407    -1.3511     8.6655 
C   -2.8076    -0.2830    10.5626 
F   -3.8964    -1.0299    10.5154 
C   -2.6484     0.6570    11.5661 
F   -3.5889     0.8092    12.4860 
C   -1.5006     1.4245    11.6024 
F   -1.3889     2.2961    12.6055 
C    0.4279     3.9700    11.2779 
C   -0.7166     4.5654    10.7604 
F   -1.5232     3.8912     9.9441 
C   -1.0773     5.8646    11.0650 
F   -2.1735     6.3989    10.5497 
C   -0.2759     6.6165    11.9089 
F   -0.5961     7.8650    12.1881 
C    0.8605     6.0510    12.4583 
F    1.6412     6.7682    13.2543 
C    1.1844     4.7419    12.1495 
F    2.2959     4.2483    12.7001 
C    3.7491     4.5069    10.0193 
C    2.9731     5.6486     9.8970 
F    1.8396     5.6274     9.1903 
C    3.2908     6.8650    10.4788 
F    2.4670     7.8988    10.3602 
C    4.4612     6.9968    11.2017 
F    4.7751     8.1471    11.7701 
C    5.3007     5.9037    11.3157 
F    6.4396     6.0042    11.9860 
C    4.9291     4.7127    10.7226 
F    5.8189     3.6963    10.8645 
C    4.3242     2.6745     8.1008 
C    4.5374     1.3545     7.7143 
F    3.9791     0.3479     8.3981 
C    5.3040     0.9891     6.6213 
F    5.4743    -0.2893     6.3091 
C    5.8925     1.9719     5.8466 
F    6.6274     1.6447     4.7961 
C    5.7006     3.2999     6.1796 
F    6.2488     4.2523     5.4366 
C    4.9311     3.6217     7.2850 
F    4.7634     4.9293     7.5125 
B    3.3922     3.0396     9.3842 
O    3.9254     1.9799    10.5163 
H    3.2606     1.8554    11.2278 
H    4.7903     2.2203    10.8853 






























 
