55

 N                  2.36699300    8.88385700    2.91684900
 B                  3.50828200   10.14951000    2.89663700
 C                  3.01544000    8.37721600    1.60958400
 H                  2.21876400    8.21646500    0.88527800
 C                  3.82178500    9.65595500    1.37363000
 C                  2.24546800    7.91712900    4.03966400
 H                  1.96247300    8.50360200    4.91250900
 H                  3.22752900    7.49353400    4.22524900
 C                  1.21790500    6.82022800    3.79574600
 H                  1.53781200    6.18130800    2.97053900
 H                  1.18912300    6.19275100    4.68796700
 C                 -0.15410200    7.40734800    3.49480900
 H                 -0.52127700    7.95232600    4.37010000
 H                 -0.87571400    6.61878600    3.27952600
 C                 -0.03254200    8.36435600    2.31671100
 H                 -0.97847000    8.86992400    2.11562500
 H                  0.22130700    7.80427400    1.41256700
 C                  1.01282800    9.43292400    2.59965500
 H                  1.12589500   10.11625000    1.75802400
 H                  0.70186000   10.01868300    3.46547600
 C                  3.79966800    7.09355500    1.70565700
 C                  5.02919400    7.01271600    2.35783800
 H                  5.44589100    7.89007400    2.83616800
 C                  5.73308400    5.81857600    2.39464500
 H                  6.68341700    5.77352600    2.91037900
 C                  5.23039100    4.68879900    1.76281600
 H                  5.78545000    3.76025400    1.78632400
 C                  4.01934400    4.76141700    1.09137900
 H                  3.62477100    3.89139400    0.58302500
 C                  3.31274200    5.95550800    1.06775500
 H                  2.36663400    6.00706500    0.53968800
 C                  2.83171000   11.61071800    3.14807900
 C                  2.89102400   12.67488800    2.25955500
 F                  3.45551900   12.54361100    1.05714100
 C                  2.37939800   13.93250400    2.55093300
 F                  2.46145500   14.91694900    1.66332000
 C                  1.77720200   14.16253000    3.77279400
 F                  1.27963800   15.35649100    4.06134800
 C                  1.69530200   13.13136800    4.69371800
 F                  1.11353000   13.33648000    5.87029600
 C                  2.22446000   11.89974400    4.36179400
 F                  2.12053200   10.92590800    5.28161900
 C                  4.81356000   10.08442600    3.89366000
 C                  5.93310600   10.75726800    3.39694900
 F                  5.86620700   11.37663400    2.21363000
 C                  7.13808200   10.87123400    4.06542100
 F                  8.15883000   11.52231300    3.52056900
 C                  7.27019800   10.31146900    5.32307300
 F                  8.41354200   10.40585400    5.98612500
 C                  6.18417500    9.67003000    5.88146300
 F                  6.28241800    9.14489300    7.09812900
 C                  4.99114000    9.58214000    5.17637900
 F                  4.00303800    8.96909200    5.83834700
 H                  3.38907500   10.26474500    0.58447900
 H                  4.85931700    9.46428900    1.11477600