58

 N                  2.02569300    8.09217100    2.77905600
 B                  3.96378700   10.31239200    2.66891100
 C                  3.17435400    7.92388400    1.77419000
 H                  2.69575100    7.49409800    0.89780800
 C                  3.75303600    9.28802600    1.40592000
 C                  1.35388100    6.77995100    3.08258200
 H                  0.65186200    6.98388800    3.88758400
 H                  2.11773400    6.10961500    3.46816800
 C                  0.63230500    6.20733100    1.87320800
 H                  1.34278400    5.90717100    1.10103200
 H                  0.13781900    5.29269700    2.20311500
 C                 -0.38922900    7.19409900    1.31376800
 H                 -1.19434100    7.32440100    2.04311500
 H                 -0.84275600    6.79979900    0.40466000
 C                  0.25735800    8.54967400    1.04492300
 H                 -0.49508000    9.29363700    0.78003500
 H                  0.94593600    8.49880000    0.19865100
 C                  0.97697400    9.06206900    2.27868900
 H                  1.46136800   10.01709200    2.10243100
 H                  0.27695100    9.17795500    3.10909900
 C                  4.17693100    6.89587000    2.25727900
 C                  4.98486900    7.07822900    3.37889200
 H                  4.91492000    7.97035000    3.98320500
 C                  5.90916500    6.10945700    3.74290000
 H                  6.52599300    6.27128200    4.61724800
 C                  6.05014900    4.95182000    2.99101400
 H                  6.77669300    4.20247600    3.27619100
 C                  5.25866700    4.76487800    1.86777800
 H                  5.36439200    3.87048500    1.26794100
 C                  4.32857200    5.73002300    1.50938800
 H                  3.72129000    5.57998600    0.62374100
 C                  3.27017000   11.80736400    2.56412600
 C                  2.56473100   12.36079600    1.50584400
 F                  2.31094000   11.65688400    0.38796100
 C                  2.05167300   13.64943100    1.50978200
 F                  1.37864600   14.11222400    0.46019400
 C                  2.23507100   14.45241900    2.61738000
 F                  1.74880000   15.68527100    2.64109100
 C                  2.92790200   13.95098500    3.70495200
 F                  3.10997200   14.71211300    4.77763300
 C                  3.42187600   12.65973200    3.65670600
 F                  4.08485300   12.24349100    4.73713400
 C                  5.56054900   10.54025700    2.94816100
 C                  6.29965700   11.09965700    1.91433500
 F                  5.67867800   11.41956100    0.76768900
 C                  7.65499300   11.36138800    1.98413800
 F                  8.30429900   11.89909400    0.95651100
 C                  8.33719700   11.05320100    3.14792900
 F                  9.63981300   11.28720800    3.24318700
 C                  7.64704500   10.49805400    4.20827800
 F                  8.29543800   10.19566700    5.32910900
 C                  6.28511900   10.25940100    4.09569500
 F                  5.69937100    9.72269200    5.17243300
 H                  3.12823200    9.71751700    0.62794900
 H                  4.71159100    9.08587000    0.92809100
 C                  2.55558100    8.71067800    4.09999900
 O                  2.15336000    8.23276500    5.11326900
 O                  3.33179900    9.69779400    3.93300400

