58

 N                  1.85198500    7.98166100    2.99182600
 B                  3.69438500   10.48678000    2.67359200
 C                  2.84297300    8.04117200    1.83549700
 H                  2.35277600    7.54722900    0.99627300
 C                  3.13569400    9.50269800    1.47081100
 C                  1.58075900    6.60892800    3.51101900
 H                  1.00024500    6.73680900    4.42685000
 H                  2.52889400    6.14561800    3.76595900
 C                  0.80268200    5.78310000    2.49842500
 H                  1.42064300    5.61034900    1.61370200
 H                  0.61063100    4.80354500    2.93749200
 C                 -0.50784000    6.46827400    2.11583900
 H                 -1.17072400    6.47738100    2.98685700
 H                 -1.01777700    5.90450000    1.33470200
 C                 -0.26413100    7.90772500    1.66490300
 H                 -1.20994300    8.43330000    1.52910300
 H                  0.24242300    7.92891200    0.69732900
 C                  0.54998600    8.66476300    2.69859100
 H                  0.77174200    9.68689600    2.41073600
 H                  0.01777400    8.69978300    3.65141400
 C                  4.09170400    7.25169200    2.15779200
 C                  4.74133000    7.34421800    3.38599300
 H                  4.33586600    7.97098500    4.17167300
 C                  5.92910900    6.66407700    3.60697500
 H                  6.42880400    6.76046300    4.56288100
 C                  6.48436900    5.88186200    2.60249000
 H                  7.41555100    5.35817600    2.77363300
 C                  5.84093300    5.77887000    1.37819200
 H                  6.26572900    5.17235100    0.58916200
 C                  4.64896000    6.45698400    1.16180800
 H                  4.15303300    6.38056400    0.20036000
 C                  3.39816600   12.08834300    2.35990800
 C                  3.06091500   12.65681100    1.14155800
 F                  2.92827100   11.90569600    0.03899100
 C                  2.84383700   14.01590200    0.96398200
 F                  2.51321900   14.50035200   -0.23040600
 C                  2.97122400   14.87502200    2.03772000
 F                  2.76366800   16.17762900    1.88632200
 C                  3.32184000   14.36172000    3.27398200
 F                  3.45857400   15.17759000    4.31565400
 C                  3.52879400   13.00098600    3.39795600
 F                  3.89824600   12.56815500    4.62028200
 C                  5.34191700   10.38576000    2.85920300
 C                  6.17782100   10.60783200    1.77260600
 F                  5.64969000   10.92510900    0.58123800
 C                  7.55872000   10.53351500    1.82556800
 F                  8.29826700   10.74757000    0.74121600
 C                  8.17371800   10.23676700    3.02824100
 F                  9.49681500   10.15462600    3.10666900
 C                  7.39116900   10.03278000    4.14801300
 F                  7.96645600    9.73909400    5.31283500
 C                  6.01302500   10.12096800    4.04227700
 F                  5.33779000    9.89440500    5.18747900
 H                  2.23149100    9.92084800    1.02519000
 H                  3.84855400    9.46422100    0.64645100
 O                  2.96509700   10.08278500    3.91473200
 H                  2.30422400    8.61028500    3.70635000
 H                  3.27004300   10.55225300    4.69440000

