57

 N                  1.67029400    7.96138300    3.48226500
 B                  3.22604600   10.52675700    3.45591700
 C                  2.53619300    8.21468600    2.25632000
 H                  1.96000000    7.82745200    1.41613500
 C                  2.77363900    9.72235500    2.09205100
 C                  1.37296400    6.51683900    3.75767500
 H                  0.90804700    6.48650400    4.74491700
 H                  2.31312300    5.97719700    3.79745600
 C                  0.44017600    5.93266000    2.70872600
 H                  0.94730600    5.89804600    1.74189700
 H                  0.23868400    4.89799800    2.98828500
 C                 -0.85799500    6.72854100    2.60839600
 H                 -1.42593800    6.60521900    3.53577200
 H                 -1.47879800    6.34121000    1.80084100
 C                 -0.56724700    8.21215400    2.39730700
 H                 -1.48514600    8.79791900    2.45550000
 H                 -0.15076100    8.38881300    1.40300900
 C                  0.37951700    8.73685400    3.46020000
 H                  0.63243500    9.78308600    3.33101100
 H                 -0.05323300    8.61229100    4.45479000
 C                  3.83526600    7.43719300    2.32027300
 C                  4.48647700    7.08954600    3.49919600
 H                  4.04207200    7.29397100    4.46690100
 C                  5.74205400    6.49849200    3.46836400
 H                  6.23867500    6.25394100    4.39882300
 C                  6.36140500    6.23876800    2.25486500
 H                  7.34399500    5.78683000    2.23196500
 C                  5.71335900    6.56581300    1.07194100
 H                  6.18652400    6.36795400    0.11932200
 C                  4.46003300    7.15688300    1.10789100
 H                  3.96792300    7.43091700    0.18127300
 C                  3.11200200   12.14991000    3.30416300
 C                  3.05283700   12.86959500    2.12109000
 F                  3.07699500   12.24444600    0.93409100
 C                  2.96803300   14.25307700    2.06842300
 F                  2.90761800   14.88776100    0.89907700
 C                  2.94774300   14.97913600    3.24299500
 F                  2.86615800   16.30528500    3.21326800
 C                  3.01501400   14.30953500    4.45221100
 F                  2.99881400   15.00028300    5.59032100
 C                  3.09736800   12.92886800    4.45540800
 F                  3.17172600   12.33831300    5.65488200
 C                  4.75048000   10.16186100    3.92670200
 C                  5.83885600   10.36558700    3.09183900
 F                  5.65094400   10.90856600    1.88178100
 C                  7.13759900   10.02111500    3.42435000
 F                  8.14185600   10.22050300    2.57526500
 C                  7.38994900    9.45722000    4.66285400
 F                  8.62632300    9.10632200    5.00159400
 C                  6.34045400    9.24715800    5.53749200
 F                  6.56882600    8.66495200    6.71498600
 C                  5.05845000    9.60165900    5.15415900
 F                  4.07678800    9.27403600    6.01738900
 H                  1.86806900   10.16968800    1.67149000
 H                  3.52500900    9.82150800    1.30808800
 H                  2.20634200    8.36985400    4.25958400
 H                  2.48777800   10.23185800    4.38117000

