65

 C                  0.09089400   -0.70915300   -0.06909600
 H                 -0.24068700   -1.57646800    0.51089600
 H                  0.63774700   -1.06888300   -0.94462800
 P                  1.29065800    0.12308400    1.10868100
 B                 -1.19376800    0.09565400   -0.45961400
 C                  1.87599100    1.60305100    0.09969100
 C                  2.08203100    1.37583300   -1.39783800
 C                  0.77891300    2.65948900    0.29362600
 C                  3.16424400    2.15931300    0.71334300
 H                  2.85509200    0.63953000   -1.60661100
 H                  1.16469800    1.05700000   -1.89161400
 H                  2.38872600    2.31756800   -1.86302700
 H                  0.66515000    2.92568000    1.34526100
 H                  1.03484100    3.56180900   -0.26853800
 H                 -0.19445300    2.32322300   -0.07191500
 H                  3.36752900    3.14484900    0.28584100
 H                  3.07857800    2.27546200    1.79599800
 H                  4.02423000    1.52538200    0.49887500
 C                  2.66162500   -1.17374400    1.19606200
 C                  3.48907000   -1.39457000   -0.06783500
 C                  3.58547600   -0.78458500    2.35852300
 C                  1.98467400   -2.49784700    1.57580700
 H                  2.86404600   -1.61106200   -0.93620700
 H                  4.11768300   -0.53545200   -0.30015000
 H                  4.15144200   -2.25271600    0.08090400
 H                  3.02176500   -0.68173200    3.28720700
 H                  4.33472200   -1.56838900    2.50004200
 H                  4.11486900    0.14932600    2.17881600
 H                  2.74951700   -3.20928600    1.89671400
 H                  1.28027700   -2.37085000    2.40218500
 H                  1.45640500   -2.94194900    0.73189100
 C                 -2.34261200    0.36109700    0.58044000
 C                 -2.11847800    0.28643200    1.96481800
 C                 -3.64704400    0.62135900    0.15670000
 C                 -3.14743000    0.48666700    2.86514000
 C                 -4.68026700    0.81094900    1.06715400
 C                 -4.43979600    0.75253200    2.42564900
 H                 -5.24263900    0.90329600    3.13544000
 C                 -1.40404000    0.56954500   -1.94749400
 C                 -1.02372200   -0.24348900   -3.01755200
 C                 -1.95229300    1.81796800   -2.25474700
 C                 -1.19558900    0.16753400   -4.33086800
 C                 -2.09403200    2.23799500   -3.56852600
 C                 -1.72381500    1.41526300   -4.62037400
 H                 -1.84438900    1.74027400   -5.64408900
 H                 -3.87688600    0.66467700   -0.90141600
 H                 -1.12301100    0.08280000    2.33919900
 H                 -0.58749700   -1.21813700   -2.82952900
 H                 -2.26387900    2.48375900   -1.45678400
 C                 -6.06393900    1.06845700    0.53637000
 C                 -2.89073100    0.44817900    4.34721300
 C                 -2.64377700    3.61473400   -3.82691300
 C                 -0.80124600   -0.77469500   -5.43553700
 F                 -3.76160500    3.83332700   -3.12637100
 F                 -2.93055600    3.81013300   -5.11517500
 F                 -1.76890800    4.56266100   -3.46536900
 F                  0.43682300   -1.25054400   -5.25198400
 F                 -1.61712900   -1.83506000   -5.48669500
 F                 -0.83226200   -0.19048700   -6.63430500
 F                 -3.83575000   -0.24984200    4.98905900
 F                 -2.89580800    1.67929000    4.87553800
 F                 -1.71355500   -0.10470300    4.64203000
 F                 -6.93160100    1.36032000    1.50708100
 F                 -6.07078200    2.08824100   -0.33008000
 F                 -6.54103900    0.00260900   -0.11901000