70

C        0.154146000     -0.030321000     -0.270538000
H       -0.335972000     -0.985347000     -0.076892000
H        0.652610000     -0.120714000     -1.239587000
P        1.453647000      0.159666000      0.936272000
B       -0.978645000      1.229774000     -0.265722000
C        2.891413000      1.090840000      0.242828000
C        3.798526000      0.145479000     -0.550741000
C        2.367108000      2.189259000     -0.694688000
C        3.662222000      1.758756000      1.387317000
H        4.299606000     -0.582288000      0.086688000
H        3.251058000     -0.387786000     -1.330910000
H        4.569339000      0.743235000     -1.040717000
H        1.749056000      2.910490000     -0.163917000
H        3.234111000      2.707711000     -1.109334000
H        1.787864000      1.788147000     -1.527146000
H        4.480033000      2.339683000      0.956054000
H        3.021337000      2.447377000      1.940396000
H        4.095451000      1.042433000      2.083190000
C        1.834090000     -1.459048000      1.740508000
C        2.094201000     -2.555059000      0.703253000
C        3.017221000     -1.337351000      2.703556000
C        0.576762000     -1.818047000      2.550427000
H        1.259885000     -2.663605000      0.009721000
H        3.000928000     -2.378065000      0.127744000
H        2.213568000     -3.504906000      1.228630000
H        2.871573000     -0.532191000      3.426386000
H        3.105362000     -2.271417000      3.262409000
H        3.959751000     -1.174531000      2.182444000
H        0.742363000     -2.783055000      3.033323000
H        0.373226000     -1.085780000      3.334352000
H       -0.314278000     -1.911215000      1.928206000
C       -2.344369000      0.650845000      0.408718000
C       -2.296402000      0.253865000      1.749399000
C       -3.560082000      0.477555000     -0.246088000
C       -3.383788000     -0.316544000      2.388208000
C       -4.659865000     -0.083956000      0.398049000
C       -4.584935000     -0.496611000      1.715391000
H       -5.438826000     -0.936924000      2.210344000
C       -1.152796000      1.764383000     -1.781648000
C       -1.534331000      0.892091000     -2.804938000
C       -0.888881000      3.081836000     -2.151909000
C       -1.658387000      1.314882000     -4.119608000
C       -1.005341000      3.504876000     -3.471371000
C       -1.395026000      2.630267000     -4.470538000
H       -1.487236000      2.961090000     -5.494776000
H       -3.669721000      0.788294000     -1.279334000
H       -1.385299000      0.406965000      2.319919000
H       -1.740553000     -0.149796000     -2.574611000
H       -0.568503000      3.801997000     -1.406133000
C       -5.939916000     -0.230741000     -0.377662000
C       -3.225906000     -0.802203000      3.800071000
C       -0.670641000      4.934287000     -3.793719000
C       -2.081588000      0.311766000     -5.155113000
F       -1.393565000      5.790044000     -3.062280000
F       -0.882398000      5.231115000     -5.078691000
F        0.618599000      5.203335000     -3.534253000
F       -1.239059000     -0.732768000     -5.198529000
F       -3.294296000     -0.190212000     -4.889298000
F       -2.127102000      0.831992000     -6.383572000
F       -4.391338000     -0.913401000      4.438529000
F       -2.443292000      0.006954000      4.525133000
F       -2.644780000     -2.016764000      3.834097000
F       -6.901605000     -0.824587000      0.334754000
F       -6.413995000      0.957409000     -0.772463000
F       -5.759173000     -0.960284000     -1.486423000
C       -1.063213000      3.304922000      1.114295000
H       -2.134790000      3.305410000      0.853680000
O       -0.382840000      2.287199000      0.619064000
H        1.009210000      0.935537000      2.008678000
O       -0.559049000      4.156261000      1.790366000





































