58
SiC29PNH14O4Cl8
Cl       6.378073000      0.479417000     11.139769000
Cl       4.526461000      7.479844000     10.315609000
Cl       9.321776000      2.232269000     16.352983000
Cl       8.446946000     -1.484326000     12.495804000
Cl       2.339670000      5.729522000     15.889120000
P        8.817908000      5.076733000     12.457015000
Cl       9.920976000     -0.609247000     15.110193000
Cl       1.817707000      8.703655000     11.377278000
Cl       0.718032000      7.827808000     14.169566000
Si       6.244020000      4.523452000     13.591297000
O        5.698408000      5.485599000     12.257556000
O        7.260225000      3.744607000     14.735777000
O        4.833408000      4.794717000     14.478137000
O        6.117542000      3.075388000     12.703911000
N        7.177690000      6.163642000     14.225077000
C        4.046927000      5.687860000     13.837930000
C        4.547052000      6.082947000     12.592706000
C        8.347320000      6.428362000     13.617822000
C        7.569217000      2.494996000     14.357443000
C        8.489692000      1.669870000     14.965021000
C        8.756613000      0.424891000     14.383013000
C        8.106260000      0.040456000     13.211056000
C        9.487239000      6.045717000     11.070308000
C        6.920498000      2.117916000     13.182253000
C        9.013086000      7.617187000     13.857648000
H        9.927498000      7.831711000     13.319706000
C        2.878005000      6.221238000     14.337185000
C        2.179033000      7.159458000     13.564213000
C        6.666558000      7.005940000     15.122823000
H        5.737846000      6.706404000     15.590285000
C       10.255297000      4.280723000     13.239694000
C       10.505391000      2.967702000     12.836932000
C        7.179620000      0.894933000     12.595948000
C       10.342963000      7.568709000      8.909316000
H       10.677138000      8.159699000      8.066515000
C       11.270084000      6.916917000      9.709362000
H       12.327145000      6.997667000      9.491665000
C        2.670988000      7.550626000     12.321170000
C       10.846358000      6.155997000     10.791970000
H       11.572017000      5.645111000     11.413059000
C        8.482188000      8.513128000     14.775521000
H        8.986726000      9.448568000     14.979723000
C        8.554340000      6.688661000     10.253688000
H        7.493819000      6.581642000     10.459039000
C        7.302377000      8.197300000     15.428419000
H        6.862617000      8.864706000     16.155165000
C        3.869380000      7.014333000     11.831270000
C        8.984832000      7.454860000      9.182691000
H        8.259106000      7.954307000      8.554122000
C       11.086769000      4.871481000     14.188746000
H       10.900738000      5.882063000     14.528706000
C       11.573558000      2.260268000     13.367708000
H       11.745489000      1.236902000     13.059911000
C       12.152481000      4.160688000     14.721699000
H       12.786011000      4.622826000     15.467438000
C       12.396618000      2.856824000     14.312651000
H       13.219618000      2.300019000     14.741125000
H        9.844555000      2.486348000     12.122895000
