62
SiC30PNH16O5Cl8
Cl      -0.683634000      0.190465000     10.656950000
Cl       0.722193000      0.136417000      7.824101000
Cl      -1.068308000      4.848674000     16.114426000
Cl       3.395512000      6.328507000     18.829469000
Cl       4.937335000      2.810583000      9.948360000
Cl       0.298359000      6.502634000     18.432912000
Cl       5.115976000      4.510776000     16.906020000
Cl       3.582331000      1.352662000      7.503581000
Si       2.197585000      2.329373000     13.810262000
O        0.970030000      3.251617000     14.525287000
O        3.373591000      3.138935000     14.824044000
O        0.997061000      1.668512000     12.697325000
O        3.219212000      2.616909000     12.461654000
N        5.890450000      0.252369000     12.052653000
P        3.785515000     -1.039537000     13.091889000
C        1.404816000      4.009073000     15.546629000
C        0.626774000      4.792378000     16.368645000
C        1.480440000      1.526331000     11.472215000
C        2.789946000      3.933657000     15.714618000
C        2.756997000      2.082366000     11.322965000
C        5.124943000      0.186395000     13.139681000
C        1.509308000      0.866697000      9.167171000
C        6.897165000      1.115294000     12.059460000
H        7.495992000      1.156857000     11.157547000
C        3.404331000      2.055080000     10.105715000
C        1.252463000      5.519775000     17.393798000
C        2.630668000      5.443193000     17.569329000
C        5.343132000      0.933736000     14.289182000
H        4.697335000      0.853195000     15.149604000
C        2.772272000      1.431875000      9.018391000
C        0.857037000      0.905753000     10.407145000
C        7.177093000      1.941795000     13.141644000
H        7.994655000      2.647200000     13.085893000
C        3.409857000      4.642257000     16.722529000
C        6.388748000      1.846369000     14.272506000
H        6.555186000      2.482709000     15.131000000
O        2.505924000      0.849299000     14.558463000
C        2.293080000     -0.406092000     14.042188000
H        1.444721000     -0.442382000     13.354014000
H        2.132334000     -1.120427000     14.854053000
C        3.247158000     -1.533900000     11.445508000
C        4.040876000     -1.425127000     10.303144000
C        1.990607000     -2.143644000     11.362609000
C        3.571517000     -1.923845000      9.095982000
C        1.537147000     -2.641972000     10.153914000
C        2.330245000     -2.535505000      9.019555000
H        5.004262000     -0.943044000     10.358553000
H        1.344457000     -2.221834000     12.228330000
H        4.179952000     -1.816249000      8.208019000
H        0.555525000     -3.092192000     10.096302000
H        1.968670000     -2.910298000      8.071469000
C        4.402155000     -2.510472000     13.938388000
C        3.505067000     -3.526052000     14.271582000
C        5.754424000     -2.650631000     14.236146000
C        3.960024000     -4.669898000     14.904543000
C        6.203767000     -3.801561000     14.869033000
C        5.310168000     -4.807138000     15.203759000
H        2.451305000     -3.432175000     14.036193000
H        6.456426000     -1.868639000     13.977463000
H        3.261849000     -5.453969000     15.164945000
H        7.254944000     -3.908266000     15.100862000
H        5.663783000     -5.701456000     15.699637000
