63
SiC30PNH16O6Cl8
Cl      -0.290075000      1.710989000      8.827789000
Cl       1.540353000      0.352599000      6.641636000
Cl      -1.112097000      4.718202000     15.299291000
Cl       3.300665000      7.076527000     17.417520000
Cl       5.834085000      1.096899000      9.880852000
Cl       0.204269000      6.641407000     17.433362000
Cl       5.070956000      5.589347000     15.262599000
Cl       4.607571000      0.072354000      7.155318000
Si       2.315958000      2.764610000     12.633605000
O        0.977417000      3.529640000     13.435887000
O        3.376129000      3.833993000     13.451167000
O        1.328380000      2.584626000     11.250928000
O        3.699546000      2.324117000     11.659415000
N        4.783172000     -0.222053000     15.946409000
P        4.073163000     -1.864444000     14.028184000
C        1.378556000      4.354668000     14.404333000
C        0.580176000      4.993712000     15.330680000
C        1.965843000      1.994528000     10.234116000
C        2.762557000      4.538843000     14.410919000
C        3.336366000      1.847228000     10.475163000
C        4.756284000     -0.307300000     14.616004000
C        2.234293000      0.965845000      8.090961000
C        5.209139000      0.923126000     16.462238000
H        5.220370000      0.986947000     17.543889000
C        4.159922000      1.274693000      9.529248000
C        1.184543000      5.842078000     16.270884000
C        2.563651000      6.034724000     16.266276000
C        5.156704000      0.687193000     13.744510000
H        5.082909000      0.566484000     12.672195000
C        3.599785000      0.836267000      8.321738000
C        1.401767000      1.553063000      9.057205000
C        5.607255000      2.005738000     15.679609000
H        5.910965000      2.930156000     16.151297000
C        3.365496000      5.375891000     15.323105000
C        5.585934000      1.886801000     14.301637000
H        5.852427000      2.717218000     13.661595000
O        2.268555000      1.275700000     13.456144000
C        5.261618000     -3.187969000     14.283215000
C        6.416431000     -2.980176000     15.031323000
C        4.992034000     -4.442878000     13.734710000
C        7.301803000     -4.030991000     15.227795000
C        5.879058000     -5.485700000     13.939359000
C        7.033657000     -5.278552000     14.685049000
H        6.619892000     -2.009785000     15.463689000
H        4.098966000     -4.600059000     13.141289000
H        8.201304000     -3.871480000     15.806923000
H        5.672109000     -6.458719000     13.514622000
H        7.726957000     -6.094677000     14.840852000
C        3.594283000     -1.838885000     12.310372000
C        4.553973000     -2.098106000     11.329547000
C        2.271651000     -1.568982000     11.957516000
C        4.181579000     -2.106313000      9.996296000
C        1.911150000     -1.578554000     10.618023000
C        2.860124000     -1.858736000      9.643616000
H        5.581677000     -2.302596000     11.606119000
H        1.539966000     -1.353695000     12.724936000
H        4.921264000     -2.295087000      9.229848000
H        0.888134000     -1.366360000     10.335081000
H        2.573683000     -1.871890000      8.598872000
C        1.481329000      0.871544000     14.432908000
O        1.533485000     -0.251748000     14.864314000
H        0.779894000      1.623802000     14.815276000
H        2.944831000     -2.123003000     14.800603000
