60
SiC29PNH16O4Cl8
Cl       0.163897000     -0.822347000     10.483818000
Cl       1.767071000     -0.162939000      7.844129000
Cl      -1.797992000      4.716333000     14.511025000
Cl       1.678341000      7.166216000     17.887235000
Cl       4.904971000      3.230610000     10.677713000
Cl      -1.124774000      7.073479000     16.503854000
Cl       3.798617000      4.904998000     17.270555000
Cl       4.187358000      1.810159000      7.963675000
Si       1.914498000      1.836695000     14.111864000
O        0.516952000      2.782497000     14.226833000
O        2.705065000      2.859086000     15.322666000
O        1.186510000      0.791777000     12.838985000
O        3.087158000      2.315213000     12.947743000
N        5.926649000      0.930216000     12.891489000
P        4.160663000     -1.106288000     13.041909000
C        0.667701000      3.839032000     15.049600000
C       -0.275107000      4.810940000     15.295291000
C        1.776120000      0.951279000     11.667354000
C        1.925038000      3.876646000     15.664155000
C        2.874285000      1.824026000     11.718931000
C        5.147950000      0.251639000     13.724055000
C        2.201849000      0.586512000      9.330149000
C        6.525309000      2.014287000     13.369357000
H        7.153227000      2.556556000     12.673331000
C        3.614148000      2.102950000     10.588254000
C        0.042129000      5.851951000     16.183499000
C        1.289258000      5.893526000     16.797933000
C        4.947644000      0.580062000     15.057444000
H        4.302198000     -0.011864000     15.692712000
C        3.271270000      1.474994000      9.380110000
C        1.452726000      0.312761000     10.483236000
C        6.347858000      2.466480000     14.671325000
H        6.818928000      3.384263000     14.994418000
C        2.241177000      4.898372000     16.536312000
C        5.548852000      1.735841000     15.531415000
H        5.362925000      2.072596000     16.541808000
H        2.817017000     -0.772051000     13.251373000
H        2.096880000      0.635081000     14.958324000
C        4.371180000     -1.473527000     11.308778000
C        5.354631000     -0.921160000     10.492475000
C        3.433214000     -2.373402000     10.789541000
C        5.398368000     -1.287450000      9.152611000
C        3.485662000     -2.720773000      9.453899000
C        4.472086000     -2.178398000      8.636426000
H        6.049355000     -0.197800000     10.891938000
H        2.650947000     -2.781510000     11.420459000
H        6.149269000     -0.850249000      8.508894000
H        2.743946000     -3.393078000      9.044762000
H        4.500687000     -2.437742000      7.586299000
C        4.389203000     -2.576714000     14.038335000
C        3.466353000     -2.872685000     15.038599000
C        5.500857000     -3.391359000     13.831167000
C        3.664248000     -3.988086000     15.840297000
C        5.688595000     -4.502842000     14.634742000
C        4.772358000     -4.798049000     15.638107000
H        2.597609000     -2.240866000     15.187247000
H        6.206262000     -3.161629000     13.040953000
H        2.949588000     -4.225261000     16.616743000
H        6.547086000     -5.141888000     14.478013000
H        4.922056000     -5.669201000     16.262287000
