61
SiC29PNH16O5Cl8
Cl       0.055814000      0.662248000      9.090692000
Cl       2.306162000      0.393046000      6.895876000
Cl      -1.423429000      5.292146000     14.285611000
Cl       2.096217000      6.342296000     18.286849000
Cl       5.927933000      2.225445000     10.500212000
Cl      -0.667172000      6.867670000     16.918168000
Cl       4.090227000      4.244086000     17.021623000
Cl       5.250213000      1.178128000      7.592934000
Si       2.041743000      2.264409000     13.187536000
O        0.789331000      3.389421000     13.443954000
O        2.931565000      2.984363000     14.514396000
O        1.173646000      1.758545000     11.696550000
O        3.459732000      2.401366000     12.227197000
N        5.121247000      1.133102000     14.253200000
P        4.344082000     -1.278204000     13.702217000
C        0.965894000      4.124282000     14.551677000
C        0.078067000      5.036320000     15.075993000
C        1.989089000      1.611111000     10.673855000
C        2.201139000      3.882463000     15.161853000
C        3.311978000      1.974838000     10.972447000
C        5.598142000      0.012662000     13.730356000
C        2.683655000      1.047797000      8.442995000
C        5.918452000      2.191203000     14.282764000
H        5.480850000      3.094684000     14.690145000
C        4.312106000      1.859098000     10.034962000
C        0.432599000      5.728786000     16.245472000
C        1.660808000      5.494403000     16.854113000
C        6.887221000     -0.154259000     13.244797000
H        7.224980000     -1.104804000     12.850883000
C        3.993204000      1.394874000      8.749749000
C        1.671577000      1.148665000      9.409990000
C        7.230191000      2.140395000     13.816947000
H        7.851293000      3.024588000     13.861476000
C        2.556170000      4.563903000     16.307594000
C        7.722486000      0.953434000     13.299564000
H        8.738935000      0.889239000     12.934266000
O        1.829073000      0.779923000     13.915218000
H        1.158184000      0.295678000     13.423282000
C        5.072060000     -2.837338000     14.215237000
C        5.787168000     -2.870412000     15.414133000
C        4.928920000     -3.989035000     13.447001000
C        6.351346000     -4.059468000     15.841735000
C        5.501951000     -5.176279000     13.882184000
C        6.208495000     -5.210738000     15.074868000
H        5.903134000     -1.970426000     16.007447000
H        4.376217000     -3.959322000     12.516314000
H        6.903064000     -4.089687000     16.771565000
H        5.394455000     -6.073121000     13.287156000
H        6.652564000     -6.138498000     15.411058000
C        3.558635000     -1.483501000     12.118235000
C        4.292397000     -1.337119000     10.942662000
C        2.223795000     -1.886820000     12.082141000
C        3.686695000     -1.616424000      9.726632000
C        1.621082000     -2.136310000     10.860251000
C        2.355163000     -2.007403000      9.687543000
H        5.318404000     -0.986677000     10.969124000
H        1.660064000     -1.996939000     13.001407000
H        4.243754000     -1.493546000      8.806361000
H        0.577202000     -2.415885000     10.819486000
H        1.876415000     -2.178694000      8.731674000
H        3.378319000     -0.863324000     14.619843000
