65

B    1.1294     0.7823     3.8986 
C    0.4998     1.7175     2.7530 
C    0.9706     3.0082     2.5178 
H    1.7101     3.4292     3.1893 
C    0.5465     3.7558     1.4295 
H    0.9353     4.7536     1.2715 
C   -0.3485     3.2061     0.5234 
H   -0.6523     3.7592    -0.3555 
C   -0.8505     1.9353     0.7525 
H   -1.5343     1.5052     0.0306 
C   -0.4686     1.2102     1.8793 
C   -1.0268    -0.1760     2.0775 
H   -0.2158    -0.8790     2.2549 
H   -1.5482    -0.4896     1.1820 
N   -1.9964    -0.3835     3.2361 
C   -3.3005     0.4981     3.1036 
C   -4.4071    -0.0559     4.0155 
H   -4.1907     0.1341     5.0659 
H   -5.3254     0.4644     3.7429 
O   -4.6315    -1.4257     3.7901 
C   -3.5222    -2.1614     4.2297 
H   -3.7840    -3.2174     4.1637 
H   -3.2931    -1.9237     5.2709 
C   -2.2915    -1.9423     3.3434 
C   -1.1170    -2.6778     3.9954 
H   -0.9568    -2.3919     5.0337 
H   -0.1809    -2.5485     3.4537 
H   -1.3632    -3.7400     3.9774 
C   -2.5342    -2.5633     1.9659 
H   -1.6221    -2.6188     1.3754 
H   -3.3053    -2.0617     1.3919 
H   -2.8683    -3.5864     2.1350 
C   -3.0247     1.9483     3.5116 
H   -2.5300     2.0366     4.4742 
H   -3.9971     2.4372     3.6002 
H   -2.4503     2.4875     2.7635 
C   -3.8747     0.4795     1.6844 
H   -4.3784    -0.4563     1.4597 
H   -3.1533     0.7111     0.9111 
H   -4.6295     1.2654     1.6517 
C    1.7694     1.6456     5.1234 
C    3.0997     1.6687     5.5112 
F    4.0208     0.9430     4.8676 
C    3.5700     2.4358     6.5678 
F    4.8570     2.4169     6.8985 
C    2.6913     3.2275     7.2807 
F    3.1241     3.9664     8.2933 
C    1.3537     3.2474     6.9246 
F    0.5011     4.0140     7.5970 
C    0.9311     2.4692     5.8641 
F   -0.3706     2.5444     5.5494 
C    2.1303    -0.3756     3.3136 
C    2.7046    -0.3823     2.0505 
F    2.4970     0.6174     1.1875 
C    3.5308    -1.4005     1.5946 
F    4.0477    -1.3554     0.3705 
C    3.8145    -2.4711     2.4188 
F    4.5972    -3.4549     1.9970 
C    3.2741    -2.5053     3.6928 
F    3.5496    -3.5254     4.4994 
C    2.4609    -1.4677     4.1099 
F    2.0063    -1.5412     5.3649 
C   -1.2859    -0.0547     4.6063 
O   -1.9961    -0.0054     5.5614 
O   -0.0307    -0.0439     4.5409 

























 
