65

B    0.7067     1.0867     4.0561 
C    0.2255     1.9175     2.7290 
C    0.5444     3.2678     2.5758 
H    1.1079     3.7687     3.3522 
C    0.1811     4.0115     1.4597 
H    0.4614     5.0552     1.3940 
C   -0.5134     3.4094     0.4253 
H   -0.7749     3.9633    -0.4667 
C   -0.8749     2.0782     0.5561 
H   -1.4265     1.5981    -0.2452 
C   -0.5476     1.3502     1.6963 
C   -1.0252    -0.0785     1.7352 
H   -0.1858    -0.7441     1.9198 
H   -1.4659    -0.3475     0.7799 
N   -2.0342    -0.4015     2.8156 
C   -3.3406     0.4128     2.7578 
C   -4.2785    -0.1516     3.8283 
H   -3.8899     0.1050     4.8239 
H   -5.2530     0.3203     3.7074 
O   -4.4646    -1.5376     3.7303 
C   -3.2595    -2.1841     4.0305 
H   -3.4568    -3.2552     4.0677 
H   -2.8960    -1.8636     5.0173 
C   -2.1819    -1.9259     2.9782 
C   -0.8817    -2.5060     3.5366 
H   -0.5364    -1.9456     4.4035 
H   -0.0776    -2.5453     2.8031 
H   -1.0824    -3.5316     3.8506 
C   -2.5506    -2.6330     1.6785 
H   -1.8468    -2.4232     0.8754 
H   -3.5587    -2.3993     1.3494 
H   -2.5081    -3.7060     1.8685 
C   -3.0912     1.8722     3.1603 
H   -2.4018     1.9465     4.0001 
H   -4.0536     2.2903     3.4644 
H   -2.7098     2.4748     2.3417 
C   -4.0117     0.3534     1.3920 
H   -4.4249    -0.6262     1.1680 
H   -3.3412     0.6611     0.5924 
H   -4.8383     1.0649     1.4050 
C    1.5903     2.0149     5.0951 
C    2.8347     2.4914     4.6989 
F    3.2767     2.2296     3.4622 
C    3.6698     3.2431     5.5050 
F    4.8453     3.6756     5.0602 
C    3.2688     3.5470     6.7944 
F    4.0515     4.2658     7.5891 
C    2.0459     3.0895     7.2437 
F    1.6519     3.3653     8.4838 
C    1.2429     2.3407     6.3961 
F    0.0806     1.9225     6.9307 
C    1.7006    -0.2126     3.7155 
C    2.3467    -0.4873     2.5197 
F    2.2015     0.3130     1.4588 
C    3.1616    -1.5949     2.3262 
F    3.7453    -1.8119     1.1514 
C    3.3695    -2.4818     3.3655 
F    4.1438    -3.5460     3.1974 
C    2.7617    -2.2442     4.5861 
F    2.9516    -3.0879     5.5966 
C    1.9599    -1.1269     4.7269 
F    1.3947    -0.9572     5.9391 
O   -0.5422     0.5755     4.7091 
H   -0.4034     0.3226     5.6252 
H   -1.5369    -0.0708     3.7056 






























