66

B    0.9760     0.8568     3.5901 
C    0.2552     1.8611     2.5324 
C    0.6750     3.1779     2.3465 
H    1.4546     3.5778     2.9834 
C    0.1518     3.9896     1.3488 
H    0.5142     5.0029     1.2302 
C   -0.8123     3.4909     0.4869 
H   -1.2014     4.0993    -0.3189 
C   -1.2732     2.1963     0.6693 
H   -2.0190     1.8002    -0.0108 
C   -0.7774     1.4005     1.6987 
C   -1.3115    -0.0044     1.8297 
H   -0.4837    -0.7091     1.8709 
H   -1.9259    -0.2445     0.9703 
N   -2.1479    -0.2992     3.0730 
C   -3.5365     0.4335     3.0480 
C   -4.4402    -0.1932     4.1145 
H   -4.0563     0.0353     5.1168 
H   -5.4255     0.2632     4.0237 
O   -4.5930    -1.5760     3.9681 
C   -3.3669    -2.1947     4.2502 
H   -3.5299    -3.2717     4.2276 
H   -3.0335    -1.9278     5.2601 
C   -2.2915    -1.8711     3.2103 
C   -0.9986    -2.5347     3.6997 
H   -0.6792    -2.1917     4.6790 
H   -0.1633    -2.3999     3.0154 
H   -1.2111    -3.6028     3.7612 
C   -2.7035    -2.5549     1.8997 
H   -2.0807    -2.2860     1.0511 
H   -3.7503    -2.3996     1.6596 
H   -2.5736    -3.6254     2.0550 
C   -3.4601     1.9282     3.4045 
H   -3.3096     2.1025     4.4684 
H   -4.4281     2.3568     3.1418 
H   -2.7008     2.4649     2.8426 
C   -4.2021     0.3414     1.6725 
H   -4.2077    -0.6507     1.2407 
H   -3.7369     1.0313     0.9723 
H   -5.2400     0.6517     1.7902 
C    1.7440     1.6873     4.7884 
C    3.0189     2.2068     4.6113 
F    3.6308     2.0890     3.4242 
C    3.7243     2.8779     5.5960 
F    4.9453     3.3494     5.3623 
C    3.1415     3.0656     6.8357 
F    3.7950     3.7083     7.7961 
C    1.8640     2.5880     7.0577 
F    1.2838     2.7782     8.2405 
C    1.1982     1.9243     6.0402 
F   -0.0537     1.5283     6.3357 
C    2.0518    -0.1707     2.8675 
C    2.4874    -0.1298     1.5517 
F    2.0841     0.8360     0.7178 
C    3.3624    -1.0589     1.0069 
F    3.7403    -0.9711    -0.2662 
C    3.8450    -2.0860     1.7940 
F    4.6802    -2.9859     1.2883 
C    3.4482    -2.1657     3.1167 
F    3.9110    -3.1479     3.8865 
C    2.5740    -1.2176     3.6196 
F    2.2484    -1.3456     4.9113 
C   -1.3176     0.2427     4.2946 
O   -0.0287    -0.0882     4.1782 
H   -1.7751    -0.2055     5.1779 
H   -1.4821     1.3135     4.2969 



















