67

B    0.7930     0.9028     3.7791 
C    0.1041     1.7629     2.5704 
C    0.3875     3.1239     2.4423 
H    1.0405     3.5954     3.1659 
C   -0.1108     3.9098     1.4116 
H    0.1448     4.9606     1.3622 
C   -0.9127     3.3389     0.4400 
H   -1.2900     3.9262    -0.3867 
C   -1.2155     1.9905     0.5360 
H   -1.8238     1.5349    -0.2372 
C   -0.7457     1.2093     1.5897 
C   -1.0909    -0.2615     1.5183 
H   -0.1825    -0.8477     1.6330 
H   -1.5119    -0.4831     0.5428 
N   -2.0495    -0.8260     2.5484 
C   -3.4344    -0.1537     2.6143 
C   -4.2872    -0.9588     3.5996 
H   -3.9020    -0.8204     4.6175 
H   -5.3061    -0.5751     3.5503 
O   -4.3306    -2.3245     3.2793 
C   -3.0645    -2.8827     3.5125 
H   -3.1500    -3.9622     3.3896 
H   -2.7369    -2.6633     4.5355 
C   -2.0178    -2.3712     2.5201 
C   -0.6591    -2.8546     3.0301 
H   -0.4007    -2.3900     3.9816 
H    0.1519    -2.6915     2.3212 
H   -0.7324    -3.9310     3.1933 
C   -2.2896    -2.9301     1.1291 
H   -1.5544    -2.6014     0.3968 
H   -3.2882    -2.6932     0.7730 
H   -2.2123    -4.0157     1.1943 
C   -3.2977     1.2489     3.2140 
H   -2.9709     1.9889     2.4900 
H   -2.6106     1.2621     4.0607 
H   -4.2838     1.5443     3.5784 
C   -4.1267    -0.1022     1.2599 
H   -4.4804    -1.0797     0.9419 
H   -3.4996     0.3318     0.4849 
H   -4.9980     0.5453     1.3655 
C    1.4389     1.8915     4.9177 
C    2.7901     2.0583     5.1828 
F    3.7175     1.3636     4.5162 
C    3.2783     2.9492     6.1289 
F    4.5846     3.0640     6.3387 
C    2.3976     3.7250     6.8566 
F    2.8468     4.5791     7.7648 
C    1.0381     3.6027     6.6251 
F    0.1796     4.3462     7.3142 
C    0.5988     2.7055     5.6700 
F   -0.7291     2.6406     5.4822 
C    1.8665    -0.2257     3.2384 
C    2.4130    -0.2908     1.9649 
F    2.1321     0.6349     1.0416 
C    3.2742    -1.2990     1.5527 
F    3.7575    -1.3115     0.3145 
C    3.6324    -2.2978     2.4371 
F    4.4532    -3.2680     2.0593 
C    3.1285    -2.2690     3.7258 
F    3.4722    -3.2160     4.5922 
C    2.2757    -1.2442     4.0896 
F    1.8466    -1.2605     5.3621 
C   -0.6419    -0.1796     5.6469 
O   -0.3490     0.0930     4.3979 
O   -1.6039    -0.8519     5.9278 
H    0.0373     0.2387     6.3986 
H   -1.5947    -0.5748     3.4484 
















