58

C    2.3716     3.6272     3.0031 
C    1.1896     2.9348     3.0650 
H    0.2811     3.4136     3.4110 
C    1.1516     1.5818     2.6651 
H    0.2175     1.0383     2.7211 
C    2.2797     0.9593     2.1988 
H    2.2375    -0.0765     1.8825 
C    3.5150     1.6452     2.1216 
C    4.7087     1.0563     1.6417 
H    4.6931     0.0259     1.3073 
C    5.8631     1.7897     1.6032 
H    6.7735     1.3357     1.2318 
C    5.8951     3.1309     2.0520 
H    6.8339     3.6726     2.0230 
C    4.7692     3.7513     2.5342 
C    3.5618     2.9939     2.5485 
C    5.2283     6.5251     2.3347 
C    5.1273     6.8917     0.9994 
H    4.6975     6.2053     0.2764 
C    5.5867     8.1357     0.5727 
H    5.5093     8.4144    -0.4709 
C    6.1510     9.0231     1.4824 
H    6.4993     9.9910     1.1448 
C    6.2929     8.6637     2.8181 
H    6.7590     9.3484     3.5172 
C    5.8472     7.4158     3.2347 
C    5.9542     6.8104     4.5756 
C    6.5188     7.3531     5.7217 
H    6.9353     8.3537     5.7163 
C    6.5555     6.5910     6.8846 
H    6.9948     7.0024     7.7846 
C    6.0537     5.2940     6.8915 
H    6.1151     4.7000     7.7950 
C    5.4792     4.7589     5.7404 
H    5.0959     3.7430     5.7535 
C    5.3986     5.5166     4.5812 
C    1.9033     6.3500     2.0289 
H    2.4974     6.0999     1.1452 
C    0.4495     5.9626     1.7734 
H   -0.1688     6.1122     2.6620 
H    0.3529     4.9263     1.4548 
H    0.0408     6.5982     0.9854 
C    2.0356     7.8518     2.2893 
H    1.6937     8.3974     1.4083 
H    3.0659     8.1496     2.4880 
H    1.4085     8.1566     3.1300 
C    1.9246     5.8923     4.9426 
H    0.9146     6.2077     4.6620 
C    1.8231     4.7563     5.9595 
H    2.8139     4.3700     6.2006 
H    1.2098     3.9297     5.6063 
H    1.3844     5.1437     6.8811 
C    2.6629     7.0879     5.5634 
H    2.0122     7.5619     6.3006 
H    2.9552     7.8418     4.8332 
H    3.5672     6.7535     6.0720 
B    4.7153     5.2371     3.1501 
P    2.7160     5.3656     3.3600 





 
