63

C        2.303504000      3.007424000      2.251916000
C        1.323602000      2.208157000      1.712255000
H        0.277415000      2.450213000      1.857591000
C        1.648686000      1.024505000      1.025238000
H        0.867436000      0.425562000      0.577826000
C        2.948311000      0.611120000      1.014785000
H        3.215729000     -0.342039000      0.573559000
C        3.982878000      1.395225000      1.581654000
C        5.300151000      0.891047000      1.622980000
H        5.495533000     -0.095333000      1.220361000
C        6.295492000      1.645798000      2.173569000
H        7.304640000      1.259479000      2.239896000
C        6.027481000      2.965661000      2.573816000
H        6.864471000      3.584453000      2.880314000
C        4.776340000      3.548653000      2.513032000
C        3.699200000      2.690003000      2.120824000
C        5.977227000      5.790723000      1.697445000
C        6.230369000      5.646093000      0.340834000
H        5.582929000      5.024517000     -0.270321000
C        7.316008000      6.292061000     -0.245454000
H        7.509339000      6.177814000     -1.304958000
C        8.158433000      7.084560000      0.526605000
H        9.001880000      7.582718000      0.065255000
C        7.924267000      7.237403000      1.887846000
H        8.586754000      7.852787000      2.485475000
C        6.835638000      6.591740000      2.461493000
C        6.412070000      6.605040000      3.877000000
C        7.041794000      7.264886000      4.923323000
H        7.921803000      7.870642000      4.741303000
C        6.542751000      7.135960000      6.213370000
H        7.025891000      7.647072000      7.036492000
C        5.435171000      6.334682000      6.446688000
H        5.059343000      6.214136000      7.455326000
C        4.811985000      5.675506000      5.387651000
H        3.973577000      5.030143000      5.633354000
C        5.264364000      5.808121000      4.078607000
C        0.564723000      5.437931000      2.943664000
H        0.926538000      5.691903000      1.946121000
C       -0.886111000      4.963389000      2.870518000
H       -1.269056000      4.649552000      3.842743000
H       -1.025269000      4.146959000      2.162826000
H       -1.501087000      5.796650000      2.528463000
C        0.719279000      6.689109000      3.814740000
H        0.217554000      7.517685000      3.315361000
H        1.765650000      6.968515000      3.936176000
H        0.272748000      6.556693000      4.800679000
C        1.003553000      3.116065000      4.820218000
H        0.112862000      2.637904000      4.401800000
C        2.018892000      2.039450000      5.215129000
H        2.956622000      2.490975000      5.549312000
H        2.244825000      1.366790000      4.388512000
H        1.617757000      1.450835000      6.040975000
C        0.613724000      3.973306000      6.026160000
H        0.288981000      3.324386000      6.840430000
H       -0.198510000      4.663152000      5.804965000
H        1.466094000      4.554892000      6.386104000
B        4.786021000      5.185999000      2.629080000
P        1.724037000      4.149349000      3.496270000
C        3.299428000      6.923709000      1.639577000
O        3.429010000      5.718444000      2.150483000
O        2.247673000      7.364550000      1.247146000
H        4.229532000      7.507086000      1.599906000
H        2.802437000      4.741459000      4.131288000











































