97

C        1.221394000      1.422826000      5.047777000
C        1.991274000      0.523167000      5.702678000
C        1.403738000      1.851693000      1.919229000
C        0.424919000      0.912024000      1.559017000
C        0.194121000      0.657312000      0.210809000
H       -0.562586000     -0.073738000     -0.052151000
C        0.886808000      1.304379000     -0.800366000
C        1.851827000      2.228288000     -0.428636000
H        2.413804000      2.745929000     -1.198267000
C        2.136106000      2.507162000      0.903351000
C       -0.439710000      0.187906000      2.548599000
H       -1.256327000      0.829425000      2.885935000
H        0.116852000     -0.138559000      3.420329000
H       -0.882052000     -0.693121000      2.085278000
C        0.630607000      0.985918000     -2.245929000
H       -0.404768000      0.686606000     -2.405634000
H        1.267144000      0.161152000     -2.573894000
H        0.845589000      1.843418000     -2.882834000
C        3.218964000      3.521123000      1.178948000
H        3.749893000      3.756546000      0.258582000
H        3.947373000      3.150660000      1.903908000
H        2.812068000      4.449825000      1.583322000
C        1.500823000      4.073927000      3.824446000
C        2.427739000      4.880669000      4.511953000
C        2.168855000      6.235625000      4.667273000
H        2.884031000      6.847318000      5.206186000
C        1.015845000      6.823053000      4.160497000
C        0.098419000      6.006133000      3.516932000
H       -0.826178000      6.438164000      3.150255000
C        0.307846000      4.640036000      3.345250000
C        3.672174000      4.308192000      5.134226000
H        4.360732000      3.919100000      4.380297000
H        3.436943000      3.482628000      5.808701000
H        4.198789000      5.067367000      5.709544000
C        0.776683000      8.298994000      4.305549000
H        1.134917000      8.662716000      5.268498000
H       -0.282037000      8.538542000      4.216109000
H        1.309885000      8.849762000      3.527511000
C       -0.788659000      3.839826000      2.697502000
H       -1.715256000      4.411653000      2.704403000
H       -0.965371000      2.910786000      3.239888000
H       -0.551473000      3.584396000      1.663181000
C       -0.120587000      1.833508000      5.576386000
C       -1.231949000      0.988869000      5.560003000
H       -1.148401000     -0.005375000      5.142391000
C       -2.446663000      1.396622000      6.087355000
H       -3.290194000      0.716304000      6.063084000
C       -2.599587000      2.657425000      6.658321000
C       -1.483591000      3.485177000      6.707593000
H       -1.560885000      4.459337000      7.176082000
C       -0.265081000      3.082130000      6.181305000
H        0.588805000      3.741810000      6.262097000
C       -3.928361000      3.107438000      7.197203000
H       -4.538132000      3.544603000      6.403284000
H       -3.803033000      3.862907000      7.972089000
H       -4.486652000      2.271414000      7.617929000
C        1.316582000     -0.131805000      6.871554000
C        1.307592000      0.446697000      8.130107000
F        1.892951000      1.628576000      8.322711000
C        0.711890000     -0.168790000      9.216783000
F        0.737491000      0.402588000     10.413671000
C        0.084783000     -1.391541000      9.048565000
F       -0.494440000     -1.988698000     10.079124000
C        0.058752000     -1.984096000      7.797965000
F       -0.555366000     -3.148186000      7.628718000
C        0.673640000     -1.349185000      6.735064000
F        0.616401000     -1.933805000      5.534981000
C        3.785849000     -1.435530000      4.881177000
C        3.064911000     -1.782494000      3.746152000
F        2.221575000     -0.898734000      3.199664000
C        3.175350000     -2.995094000      3.090015000
F        2.436729000     -3.260387000      2.018305000
C        4.083377000     -3.928630000      3.553295000
F        4.216796000     -5.095698000      2.941921000
C        4.871708000     -3.615733000      4.644466000
F        5.779955000     -4.485405000      5.071343000
C        4.723563000     -2.387039000      5.268826000
F        5.584156000     -2.148517000      6.264063000
C        4.279678000      0.199737000      7.043513000
C        5.044084000      1.285209000      7.451574000
F        5.375210000      2.273305000      6.604841000
C        5.532264000      1.444805000      8.740613000
F        6.255918000      2.513987000      9.056645000
C        5.260891000      0.490839000      9.698873000
F        5.711767000      0.630067000     10.936207000
C        4.518353000     -0.620962000      9.342297000
F        4.251961000     -1.557039000     10.245381000
C        4.064825000     -0.744524000      8.043530000
F        3.381169000     -1.864756000      7.773960000
B        3.579595000      0.048197000      5.559059000
P        1.951976000      2.315690000      3.606673000
C        5.594658000      0.792472000      4.109355000
H        6.200083000      0.384329000      4.917113000
H        5.548336000      0.084323000      3.282400000
H        6.012617000      1.742984000      3.784984000
O        4.288839000      1.038799000      4.624652000
H        3.632241000      1.635704000      4.044366000























 
