93

C    1.5256     1.4476     4.9500 
C    2.0170     0.2773     5.4059 
C    2.7127     1.9038     2.0622 
C    1.8008     1.0641     1.4048 
C    2.0145     0.7838     0.0619 
H    1.3117     0.1360    -0.4491 
C    3.1009     1.2914    -0.6381 
C    4.0023     2.0958     0.0443 
H    4.8673     2.4861    -0.4795 
C    3.8428     2.4067     1.3887 
C    0.6307     0.4236     2.0914 
H    0.0033    -0.0871     1.3636 
H    0.0135     1.1530     2.6145 
H    0.9751    -0.3122     2.8216 
C    3.3192     0.9369    -2.0804 
H    3.9082     1.6979    -2.5903 
H    2.3716     0.8188    -2.6047 
H    3.8591    -0.0094    -2.1561 
C    4.9184     3.2217     2.0607 
H    5.6320     3.5764     1.3204 
H    5.4737     2.6094     2.7779 
H    4.5246     4.0915     2.5882 
C    2.3551     4.1270     4.0233 
C    3.1682     4.7855     4.9659 
C    3.0008     6.1527     5.1386 
H    3.6188     6.6661     5.8663 
C    2.0554     6.8760     4.4195 
C    1.2432     6.1926     3.5244 
H    0.4769     6.7356     2.9832 
C    1.3671     4.8247     3.3137 
C    4.1731     4.0630     5.8275 
H    5.0062     3.6633     5.2414 
H    3.7169     3.2257     6.3642 
H    4.5893     4.7423     6.5684 
C    1.9235     8.3602     4.6045 
H    2.1424     8.6500     5.6316 
H    0.9212     8.7025     4.3511 
H    2.6284     8.8853     3.9561 
C    0.4078     4.1405     2.3797 
H   -0.3691     4.8341     2.0644 
H   -0.0853     3.3025     2.8794 
H    0.9083     3.7583     1.4891 
C    0.2102     2.0354     5.3302 
C   -0.9603     1.3274     5.0452 
H   -0.8904     0.3659     4.5502 
C   -2.2012     1.8332     5.3938 
H   -3.0936     1.2646     5.1598 
C   -2.3198     3.0607     6.0420 
C   -1.1526     3.7559     6.3412 
H   -1.2159     4.7033     6.8634 
C    0.0935     3.2529     5.9982 
H    0.9814     3.8048     6.2769 
C   -3.6668     3.5920     6.4439 
H   -3.9849     3.1505     7.3909 
H   -4.4241     3.3501     5.6984 
H   -3.6424     4.6732     6.5737 
C    1.2141    -0.4250     6.4474 
C    1.0410     0.0891     7.7269 
F    1.5049     1.2938     8.0424 
C    0.3674    -0.6108     8.7131 
F    0.2362    -0.0979     9.9296 
C   -0.1869    -1.8450     8.4247 
F   -0.8401    -2.5173     9.3605 
C   -0.0814    -2.3587     7.1442 
F   -0.6542    -3.5174     6.8444 
C    0.6024    -1.6422     6.1795 
F    0.5971    -2.1209     4.9331 
C    3.4337    -2.0245     4.9190 
C    3.6176    -2.6899     6.1204 
F    3.7593    -1.9857     7.2526 
C    3.6517    -4.0690     6.2383 
F    3.8233    -4.6530     7.4213 
C    3.5046    -4.8440     5.1023 
F    3.5372    -6.1685     5.1863 
C    3.3212    -4.2270     3.8778 
F    3.1691    -4.9698     2.7840 
C    3.2853    -2.8445     3.8097 
F    3.0640    -2.3190     2.5989 
C    4.7732     0.2419     5.3974 
C    5.8827     0.3563     4.5653 
F    5.8222    -0.0767     3.3006 
C    7.0814     0.9293     4.9569 
F    8.1017     1.0264     4.1081 
C    7.2133     1.4122     6.2476 
F    8.3521     1.9679     6.6427 
C    6.1415     1.3174     7.1147 
F    6.2477     1.7989     8.3499 
C    4.9588     0.7404     6.6767 
F    3.9556     0.7202     7.5579 
B    3.3899    -0.4056     4.7975 
P    2.5941     2.3529     3.8091 
H    3.8853     2.1478     4.2668 
H    3.3804    -0.1389     3.6216 
































 
