60

B    6.7888    -3.9125     6.6603 
C    2.3626     0.7685     5.6623 
C    1.2121     0.0081     5.8483 
H    1.2760    -1.0388     6.1073 
C   -0.0173     0.6235     5.6938 
C   -0.0689     1.9659     5.3616 
H   -1.0217     2.4574     5.2375 
C    1.1252     2.6645     5.1923 
C    1.1712     4.1456     4.8289 
C    8.0287    -3.0640     6.1689 
C    8.6751    -3.3440     4.9778 
C    9.7195    -2.5770     4.4959 
C   10.1550    -1.4908     5.2378 
C    9.5426    -1.1857     6.4419 
C    8.4907    -1.9707     6.8795 
C    7.0001    -5.4094     7.0863 
C    8.2682    -5.9719     7.2726 
C    8.4672    -7.2873     7.6485 
C    7.3719    -8.1089     7.8514 
C    6.0941    -7.6049     7.6822 
C    5.9315    -6.2826     7.3142 
F    8.2831    -4.3977     4.2539 
F   10.3084    -2.8701     3.3450 
F   11.1580    -0.7485     4.7982 
F    9.9677    -0.1540     7.1576 
F    7.9314    -1.6685     8.0562 
F    9.3703    -5.2477     7.1085 
F    9.6899    -7.7678     7.8179 
F    7.5451    -9.3663     8.2077 
F    5.0447    -8.3902     7.8765 
F    4.6750    -5.8722     7.1723 
N    2.3071     2.0624     5.3436 
H   -0.9319     0.0601     5.8309 
C   -0.2240     4.7459     4.6630 
H   -0.8040     4.6823     5.5857 
H   -0.1321     5.8011     4.4014 
H   -0.7835     4.2535     3.8652 
C    1.9366     4.3030     3.5098 
H    2.9356     3.8774     3.5852 
H    1.4134     3.7955     2.6965 
H    2.0218     5.3609     3.2535 
C    1.9037     4.8991     5.9455 
H    1.3567     4.8213     6.8874 
H    2.9016     4.4928     6.1005 
H    1.9893     5.9564     5.6864 
C    3.7496     0.1917     5.8041 
H    4.2745     0.3686     4.8602 
H    4.2745     0.7830     6.5610 
C    3.8354    -1.2838     6.1646 
H    3.3269    -1.4656     7.1168 
H    3.3127    -1.8833     5.4124 
C    5.2788    -1.7637     6.2698 
H    5.8036    -1.1545     7.0100 
H    5.7844    -1.5901     5.3146 
C    5.3744    -3.2414     6.6442 
H    4.7853    -3.8313     5.9255 
H    4.8643    -3.4304     7.5962 
O    5.1846     3.3147     6.2708 
O    5.2297     2.7562     4.0301 
C    5.1845     3.0306     5.1513 




































 
