62

B        6.795352000     -3.898328000      6.710774000
C        2.387260000      0.795493000      5.748633000
C        1.231037000      0.030399000      5.848252000
H        1.287909000     -1.023726000      6.075906000
C        0.009635000      0.647525000      5.648654000
C       -0.034384000      1.998518000      5.350748000
H       -0.982566000      2.486747000      5.188341000
C        1.157953000      2.711692000      5.263691000
C        1.212478000      4.197450000      4.926150000
C        8.041640000     -3.035498000      6.263947000
C        8.711249000     -3.290202000      5.079831000
C        9.762619000     -2.511669000      4.632995000
C       10.181539000     -1.439864000      5.404627000
C        9.546267000     -1.160622000      6.603164000
C        8.488509000     -1.956322000      7.005308000
C        7.003366000     -5.407847000      7.093105000
C        8.268603000     -5.966921000      7.305690000
C        8.465244000     -7.293520000      7.641715000
C        7.370771000     -8.130154000      7.773916000
C        6.095625000     -7.630047000      7.575493000
C        5.934927000     -6.296436000      7.249961000
F        8.335472000     -4.329714000      4.327513000
F       10.373706000     -2.780719000      3.488094000
F       11.190995000     -0.686960000      4.999401000
F        9.956281000     -0.143353000      7.347962000
F        7.908862000     -1.680078000      8.178783000
F        9.369260000     -5.228395000      7.209319000
F        9.685151000     -7.770418000      7.839438000
F        7.541794000     -9.398411000      8.091018000
F        5.046760000     -8.430015000      7.701703000
F        4.680901000     -5.890378000      7.075467000
N        2.330596000      2.102020000      5.469288000
H       -0.908074000      0.077246000      5.721320000
C       -0.182542000      4.786038000      4.716231000
H       -0.795580000      4.705077000      5.616011000
H       -0.089575000      5.844946000      4.472178000
H       -0.706815000      4.300721000      3.890946000
C        2.018186000      4.379239000      3.632220000
H        3.023422000      3.970382000      3.718834000
H        1.523737000      3.878946000      2.797371000
H        2.096958000      5.442162000      3.396170000
C        1.889429000      4.951434000      6.078966000
H        1.330114000      4.818678000      7.007337000
H        2.911296000      4.613695000      6.240165000
H        1.918315000      6.018140000      5.848609000
C        3.769100000      0.222897000      5.931075000
H        4.330796000      0.439776000      5.017062000
H        4.264854000      0.788823000      6.726190000
C        3.842769000     -1.264717000      6.238660000
H        3.300132000     -1.487926000      7.163094000
H        3.353269000     -1.834910000      5.442598000
C        5.284826000     -1.740676000      6.375957000
H        5.777482000     -1.162148000      7.161121000
H        5.821769000     -1.519462000      5.448540000
C        5.378581000     -3.232935000      6.687033000
H        4.819739000     -3.792966000      5.921123000
H        4.838245000     -3.469999000      7.610819000
C        5.560292000      2.914754000      4.482441000
O        5.243088000      2.198287000      3.571080000
O        4.795955000      3.248327000      5.502892000
H        6.552336000      3.380307000      4.563374000
H        3.875724000      2.827617000      5.420959000





























































