89

P        7.232983000     11.620789000      0.313304000
F        3.500378000     13.592063000     -1.803506000
F        0.822962000     13.229342000     -1.555261000
F        0.219549000     10.693952000     -0.420325000
F        4.040013000     13.112644000     -4.350503000
F        2.718336000     13.089935000      2.779267000
F        2.375619000      9.034335000     -1.219066000
F        3.566422000     10.252633000      2.893637000
C        2.896487000     11.350081000     -1.354125000
F        2.019007000      8.608230000      4.216963000
C        3.326508000     12.332156000     -2.239758000
F       -0.569092000     15.346238000     -0.855891000
C        1.905115000     13.063405000      0.554600000
F       -0.360694000     16.399543000      1.635335000
C        1.989154000     10.555966000      1.128610000
C        8.324122000     10.208716000     -0.336219000
F       -1.319945000      9.008852000      0.942150000
C        4.385209000     12.004911000      0.737235000
C        5.456740000     11.110670000      0.072520000
F       -0.448627000      7.938815000      3.282942000
F        2.889068000      8.602030000     -3.759248000
C        7.592268000     11.975189000      2.124259000
C        2.367646000      9.986304000      2.332671000
C        0.710230000     10.189552000      0.716615000
B        2.805166000     11.702304000      0.256751000
C        7.551095000     13.145408000     -0.755467000
C        0.324524000      8.773131000      2.598959000
F        1.311243000     15.231557000      3.441264000
C        1.941704000     13.637714000      1.817515000
F        3.739886000     10.611008000     -5.379340000
C        0.356090000     15.335194000      1.295388000
C        3.033538000      9.831457000     -3.273628000
C        1.012600000     13.682622000     -0.312735000
C        2.763645000     10.098425000     -1.936884000
C        3.615160000     12.117891000     -3.573869000
C        0.256165000     14.794574000      0.028303000
C       -0.114380000      9.321490000      1.405652000
C        1.576574000      9.113083000      3.065451000
C        1.209520000     14.743431000      2.207072000
C        6.993935000     13.331178000      2.539701000
H        7.082726000     13.402771000      3.624417000
H        5.934268000     13.413599000      2.313559000
H        7.528484000     14.170389000      2.100070000
C        6.940439000     10.902241000      3.013867000
H        7.195841000     11.147297000      4.046758000
H        7.297141000      9.896763000      2.809725000
H        5.856371000     10.923672000      2.952653000
C        3.466843000     10.846779000     -4.101520000
C        6.441398000     14.200724000     -0.618849000
H        6.776832000     15.080779000     -1.172222000
H        6.245910000     14.509382000      0.402912000
H        5.514057000     13.869146000     -1.074888000
C        8.882711000     13.835261000     -0.417062000
H        9.057459000     14.592220000     -1.184928000
H        9.741372000     13.170464000     -0.412564000
H        8.840227000     14.352577000      0.538933000
C        7.769712000      9.662649000     -1.678123000
H        8.040955000      8.608625000     -1.754863000
H        8.216294000     10.171843000     -2.527203000
H        6.690801000      9.725867000     -1.789941000
C        7.560195000     12.749841000     -2.242521000
H        7.525041000     13.673438000     -2.823279000
H        6.686854000     12.161153000     -2.527516000
H        8.459148000     12.216906000     -2.537424000
C        9.095699000     12.018638000      2.437610000
H        9.194480000     12.339403000      3.476845000
H        9.642623000     12.731174000      1.824073000
H        9.574461000     11.045852000      2.356933000
C        8.396057000      9.049009000      0.678139000
H        8.965093000      8.246662000      0.205038000
H        7.429274000      8.644961000      0.957922000
H        8.930730000      9.327784000      1.581989000
C        9.781901000     10.629303000     -0.590910000
H       10.320756000      9.734083000     -0.910587000
H       10.278931000     11.010026000      0.298741000
H        9.879266000     11.359775000     -1.388359000
H        4.568084000     13.050065000      0.502704000
H        4.467012000     11.917261000      1.814932000
H        5.358111000     11.223794000     -1.013252000
C        5.189369000      9.635584000      0.410280000
H        5.377840000      9.416253000      1.458113000
H        4.134090000      9.440582000      0.234566000
H        5.748033000      8.935359000     -0.203597000
C        4.665885000     11.423263000      5.685409000
H        4.504552000     10.462262000      5.189680000
H        3.831066000     11.613516000      6.364496000
H        5.579459000     11.366070000      6.276298000
O        4.836326000     12.475733000      4.755883000
H        4.017182000     12.595768000      4.264597000




































 
