86

P    7.6391    11.3956     0.3055 
F    3.2572    14.5692    -0.4197 
F    0.6126    12.3976     0.5816 
F    0.5104     9.2113     0.5596 
F    3.0358    15.0325    -3.0123 
F    4.3200    13.8761     3.1214 
F    3.4772     9.9253    -1.3075 
F    3.3573    11.0359     3.8424 
C    3.2781    12.2149    -0.6971 
F    1.7360    10.1008     5.7534 
C    3.1957    13.4968    -1.2247 
F   -0.9016    14.2468     1.7562 
C    2.5474    13.0400     1.7712 
F    0.1586    15.8954     3.6343 
C    1.9752    10.1786     2.1249 
C    8.5499     9.9125    -0.4470 
F   -1.0734     8.2263     2.4962 
C    5.0000    11.9021     1.3325 
C    5.8570    10.9170     0.5129 
F   -0.4851     8.6693     5.1082 
F    3.2588    10.4295    -3.8863 
C    8.4068    11.8936     1.9524 
C    2.2495    10.3810     3.4785 
C    0.8267     9.4351     1.8293 
B    3.4000    11.9086     0.9335 
C    7.6938    12.8258    -0.9272 
C    0.3088     9.1454     4.1536 
F    2.7824    15.6676     4.2905 
C    3.0307    13.9056     2.7388 
F    3.0301    12.9787    -4.7912 
C    0.9182    14.9837     3.0409 
C    3.2163    11.4399    -3.0210 
C    1.1955    13.1923     1.4901 
C    3.3043    11.2086    -1.6566 
C    3.1042    13.7767    -2.5788 
C    0.3831    14.1396     2.0859 
C    0.0146     8.9169     2.8198 
C    1.4300     9.8840     4.4778 
C    2.2537    14.8625     3.3716 
C    7.9472    13.2963     2.3892 
H    8.3734    13.4731     3.3790 
H    6.8674    13.3773     2.4828 
H    8.3148    14.0841     1.7368 
C    7.9538    10.9258     3.0592 
H    8.4713    11.2177     3.9757 
H    8.1992     9.8866     2.8611 
H    6.8857    11.0069     3.2471 
C    3.1066    12.7361    -3.4882 
C    6.6297    13.8934    -0.6241 
H    6.7743    14.6993    -1.3471 
H    6.6999    14.3268     0.3689 
H    5.6272    13.5010    -0.7695 
C    9.0623    13.5229    -0.9647 
H    9.0440    14.2285    -1.7983 
H    9.8973    12.8468    -1.1271 
H    9.2540    14.0991    -0.0622 
C    7.6969     9.2706    -1.5718 
H    7.9666     8.2153    -1.6380 
H    7.9128     9.7171    -2.5378 
H    6.6221     9.3194    -1.4199 
C    7.3626    12.3084    -2.3384 
H    7.1989    13.1821    -2.9720 
H    6.4459    11.7169    -2.3671 
H    8.1708    11.7357    -2.7832 
C    9.9426    11.9083     1.9039 
H   10.2925    12.3030     2.8601 
H   10.3373    12.5534     1.1217 
H   10.3748    10.9177     1.7907 
C    8.8331     8.8412     0.6257 
H    9.2725     7.9835     0.1132 
H    7.9452     8.4939     1.1438 
H    9.5573     9.1756     1.3635 
C    9.9117    10.2713    -1.0646 
H   10.3573     9.3393    -1.4206 
H   10.6042    10.7136    -0.3520 
H    9.8244    10.9294    -1.9243 
H    5.3398    12.9248     1.2170 
H    5.1056    11.6634     2.3906 
H    5.5239    10.9532    -0.5296 
C    5.6195     9.4894     1.0291 
H    5.9735     9.3688     2.0522 
H    4.5427     9.3385     1.0310 
H    6.0575     8.7126     0.4101 
O   -2.2925    11.2845     2.3126 
O    2.7514    10.5696     1.1297 
C   -1.4162    11.6518     2.9064 







































 
