87

P    7.5724    11.4597     0.4542 
F    2.7652    14.4493    -0.3662 
F    0.5585    12.7305     0.9561 
F    1.0495    10.1788     0.0872 
F    2.6754    14.6356    -2.9872 
F    4.4682    13.9296     3.3468 
F    3.5288     9.7946    -0.7575 
F    3.7571    10.9093     3.9066 
C    3.0887    12.0961    -0.3918 
F    2.5367     8.9102     5.1238 
C    2.8906    13.3042    -1.0491 
F   -0.8117    14.5271     2.3386 
C    2.5850    13.2004     2.0705 
F    0.4267    16.0568     4.2207 
C    2.5300    10.6339     1.8963 
C    8.5410     9.9190    -0.0784 
F   -0.1307     8.1964     1.3311 
C    4.9433    12.0002     1.4735 
C    5.8083    10.9535     0.7458 
F    0.5751     7.5088     3.8612 
F    3.4872    10.0319    -3.3871 
C    8.3294    12.2315     1.9962 
C    2.8157    10.2531     3.2043 
C    1.5035     9.8991     1.3167 
B    3.2935    11.9506     1.2434 
C    7.5544    12.6755    -0.9902 
C    1.1982     8.5019     3.2386 
F    3.0842    15.7097     4.6744 
C    3.1589    14.0106     3.0377 
F    3.0464    12.4490    -4.5565 
C    1.1127    15.1505     3.5348 
C    3.2716    11.1091    -2.6338 
C    1.2288    13.4382     1.8805 
C    3.2807    11.0221    -1.2530 
C    2.8602    13.4421    -2.4297 
C    0.4897    14.3721     2.5767 
C    0.8523     8.8511     1.9502 
C    2.1931     9.2180     3.8755 
C    2.4603    14.9674     3.7613 
C    7.8111    13.6629     2.2240 
H    8.2449    14.0085     3.1648 
H    6.7312    13.7112     2.3308 
H    8.1312    14.3559     1.4498 
C    7.9368    11.4169     3.2420 
H    8.4499    11.8663     4.0951 
H    8.2344    10.3737     3.1945 
H    6.8691    11.4695     3.4413 
C    3.0531    12.3359    -3.2333 
C    6.4298    13.7150    -0.8502 
H    6.5249    14.4013    -1.6946 
H    6.4811    14.3049     0.0604 
H    5.4491    13.2486    -0.9167 
C    8.8819    13.4326    -1.1474 
H    8.8232    14.0018    -2.0778 
H    9.7522    12.7852    -1.2147 
H    9.0446    14.1478    -0.3442 
C    7.7054     9.0827    -1.0876 
H    7.8970     8.0248    -0.9034 
H    8.0068     9.2918    -2.1106 
H    6.6298     9.2268    -1.0302 
C    7.2554    11.9245    -2.3000 
H    7.0723    12.6783    -3.0681 
H    6.3570    11.3086    -2.2384 
H    8.0829    11.3104    -2.6415 
C    9.8623    12.3063     1.9199 
H   10.2029    12.8563     2.7997 
H   10.2195    12.8420     1.0429 
H   10.3375    11.3296     1.9509 
C    8.8819     9.0325     1.1369 
H    9.3522     8.1269     0.7498 
H    8.0161     8.7307     1.7174 
H    9.5994     9.5036     1.8032 
C    9.8839    10.2417    -0.7563 
H   10.3655     9.2871    -0.9815 
H   10.5612    10.8080    -0.1211 
H    9.7657    10.7675    -1.6990 
H    5.2189    13.0069     1.1749 
H    5.1602    11.9319     2.5333 
H    5.4684    10.8620    -0.2889 
C    5.6414     9.5882     1.4249 
H    5.9728     9.6162     2.4628 
H    4.5788     9.3597     1.4274 
H    6.1397     8.7708     0.9133 
C   -1.2285    11.3883     2.5726 
O   -0.4743    11.3748     3.5036 
H   -1.1781    10.6320     1.7702 
H   -2.0067    12.1628     2.4707 




























 
