86

P    7.4568    11.1335     0.0769 
F    3.6246    13.0221    -1.2441 
F    1.0111    13.1147    -0.3224 
F    0.4020    10.9317     1.2996 
F    3.2795    12.3405    -3.7809 
F    3.9081    13.0087     3.4234 
F    2.0110     8.7831     0.0842 
F    4.4594     9.7709     3.4431 
C    2.8088    10.9645    -0.4221 
F    3.1098     8.3933     5.2104 
C    3.1134    11.8018    -1.4882 
F    0.1854    15.4992     0.4107 
C    2.5505    12.9299     1.4771 
F    1.2050    16.7180     2.6134 
C    2.5004    10.4490     2.2554 
C    8.2546     9.7581    -0.9621 
F   -0.9339     9.5252     3.1170 
C    4.8519    11.5977     1.2133 
C    5.6604    10.6912     0.2659 
F    0.3989     8.2312     5.1013 
F    1.6452     8.1507    -2.4385 
C    8.3022    11.2847     1.7524 
C    3.1194     9.7670     3.2902 
C    1.1126    10.3279     2.2596 
B    3.1839    11.4379     1.1175 
C    7.5779    12.7665    -0.8743 
C    1.0656     8.9376     4.1966 
F    3.0996    15.4282     4.0927 
C    2.9976    13.5922     2.6111 
F    2.2712     9.8942    -4.4257 
C    1.6233    15.5086     2.2588 
C    2.1211     9.3557    -2.1395 
C    1.5738    13.6263     0.7752 
C    2.3147     9.7289    -0.8153 
C    2.9483    11.4784    -2.8209 
C    1.1125    14.8840     1.1378 
C    0.3914     9.6009     3.1855 
C    2.4405     9.0229     4.2460 
C    2.5794    14.8488     3.0053 
C    7.9181    12.6128     2.4249 
H    8.3110    12.5835     3.4435 
H    6.8435    12.7546     2.4891 
H    8.3502    13.4827     1.9381 
C    7.8343    10.1668     2.7000 
H    8.3977    10.2797     3.6289 
H    8.0227     9.1649     2.3248 
H    6.7791    10.2594     2.9470 
C    2.4391    10.2354    -3.1538 
C    6.6407    13.8646    -0.3354 
H    6.9191    14.7822    -0.8598 
H    6.7184    14.0623     0.7289 
H    5.6046    13.6576    -0.5833 
C    9.0048    13.3410    -0.8502 
H    9.0292    14.1658    -1.5656 
H    9.7779    12.6357    -1.1397 
H    9.2575    13.7558     0.1231 
C    7.3353     9.3574    -2.1373 
H    7.7047     8.4086    -2.5313 
H    7.3690    10.0754    -2.9498 
H    6.2946     9.2118    -1.8634 
C    7.1571    12.5510    -2.3387 
H    7.0374    13.5390    -2.7867 
H    6.1954    12.0435    -2.4311 
H    7.9027    12.0201    -2.9239 
C    9.8345    11.2326     1.6554 
H   10.2252    11.4407     2.6539 
H   10.2464    11.9819     0.9839 
H   10.2104    10.2555     1.3624 
C    8.5125     8.5020    -0.1066 
H    8.8829     7.7262    -0.7794 
H    7.6253     8.1139     0.3822 
H    9.2800     8.6644     0.6452 
C    9.6105    10.1515    -1.5702 
H   10.0004     9.2698    -2.0842 
H   10.3452    10.4452    -0.8235 
H    9.5263    10.9413    -2.3115 
H    5.0752    12.6432     1.0261 
H    5.1676    11.4035     2.2321 
H    5.3064    10.8587    -0.7575 
C    5.3882     9.2183     0.6164 
H    5.8555     8.9221     1.5510 
H    4.3151     9.1085     0.7626 
H    5.6775     8.5157    -0.1591 
O    5.9403    15.0374     2.8643 
H    5.4080    14.4622     3.4262 
H    5.5101    15.8957     2.9206 


































 
