28

C   -1.2236     1.4888    -0.4907 
C    1.4516     2.1100     0.1429 
C    0.3426     2.7214     1.0216 
C   -0.9394     2.8442     0.1857 
H   -1.7601     1.6213    -1.4288 
H    2.1693     1.5549     0.7447 
H    0.1572     2.0735     1.8806 
H    0.6602     3.6923     1.4046 
H   -1.7882     3.1404     0.8039 
H   -0.8044     3.6127    -0.5778 
P    0.4818     0.9196    -0.8642 
B    1.0314    -0.3540    -1.9407 
C   -0.0279    -1.2490    -2.7429 
C    2.5970    -0.6422    -2.1228 
F   -1.2998    -0.8051    -2.6109 
F    0.2235    -1.2809    -4.0611 
F   -0.0338    -2.5242    -2.3193 
F    2.9072    -1.9358    -1.9456 
F    3.3658     0.0539    -1.2532 
F    3.0276    -0.3059    -3.3511 
C   -1.9885     0.5170     0.4065 
H   -2.9845     0.9142     0.6111 
H   -2.0967    -0.4548    -0.0728 
H   -1.4761     0.3705     1.3585 
C    2.1849     3.1465    -0.7071 
H    2.8983     2.6698    -1.3775 
H    1.4868     3.7269    -1.3121 
H    2.7284     3.8345    -0.0565 
















 
