31

C       -1.159818000      1.521703000     -0.513816000
C        1.462484000      2.192375000      0.128291000
C        0.349521000      2.950941000      0.873909000
C       -0.894117000      2.961508000     -0.021369000
H       -1.542788000      1.507973000     -1.534543000
H        2.222853000      1.812754000      0.810920000
H        0.124963000      2.437158000      1.811975000
H        0.680631000      3.960879000      1.120502000
H       -1.767262000      3.333568000      0.515589000
H       -0.731044000      3.622428000     -0.873253000
P        0.523215000      0.770725000     -0.541222000
B        1.158620000     -0.739768000     -1.685106000
C        0.056639000     -1.116973000     -2.801559000
C        2.674530000     -0.534085000     -2.194305000
F       -1.176759000     -1.220961000     -2.238808000
F       -0.056345000     -0.171464000     -3.755285000
F        0.285306000     -2.276938000     -3.425809000
F        3.249406000     -1.658933000     -2.632613000
F        3.460035000     -0.072401000     -1.184283000
F        2.779562000      0.373393000     -3.184434000
C       -2.101451000      0.733610000      0.398663000
H       -3.084690000      1.204742000      0.388005000
H       -2.211475000     -0.296485000      0.060865000
H       -1.734999000      0.714983000      1.425819000
C        2.116492000      3.003041000     -0.991403000
H        2.894832000      2.428401000     -1.489744000
H        1.393107000      3.313773000     -1.747020000
H        2.566063000      3.901773000     -0.566786000
C        0.665574000     -0.784561000      0.510554000
O        0.481261000     -1.031020000      1.654245000
O        1.076016000     -1.593224000     -0.463969000
