30

 C                 -1.08136300    1.33554400   -0.33988000
 C                  1.48878600    2.21306100   -0.15679100
 C                  0.51235900    2.97479400    0.75661300
 C                 -0.91250700    2.77820600    0.20902200
 H                 -1.36528900    1.36330500   -1.39283700
 H                  2.45131100    2.04580500    0.32800900
 H                  0.57757700    2.57915400    1.77309500
 H                  0.77929000    4.03175900    0.80356100
 H                 -1.65253200    2.96929900    0.98660300
 H                 -1.10098900    3.49224100   -0.59198700
 P                  0.60541600    0.61797800   -0.29610100
 B                  1.02736700   -0.80278500   -1.56624100
 C                  0.31123700   -0.48623600   -2.97562500
 C                  2.63479800   -0.92296400   -1.63997700
 F                 -1.03938500   -0.60576500   -2.89233600
 F                  0.51793000    0.77999000   -3.42963000
 F                  0.69797600   -1.30055600   -3.96632900
 F                  3.06511400   -2.04920900   -2.22143200
 F                  3.19049700   -0.90565100   -0.39517700
 F                  3.23575000    0.09437300   -2.30504100
 C                 -2.08977500    0.47806600    0.42008200
 H                 -3.08724200    0.90908600    0.33095600
 H                 -2.12500100   -0.53775200    0.02445000
 H                 -1.83603500    0.42842300    1.48097300
 C                  1.68690700    2.89855900   -1.50734700
 H                  2.35706000    2.33111700   -2.14870000
 H                  0.74320100    3.01995100   -2.04069200
 H                  2.11291200    3.88956700   -1.34350000
 H                  0.71286200    0.09925400    1.00185100
 H                  0.55862000   -1.78765800   -1.06820400