74
BC33PH28OF10
P       -2.222160000      0.247659000      0.082156000
C       -2.160061000      0.788526000     -1.642501000
H       -2.740336000      0.043205000     -2.182076000
H       -1.141834000      0.750999000     -2.022636000
C       -2.844201000      2.157414000     -1.769503000
H       -2.219949000      2.904256000     -1.291526000
H       -2.847624000      2.406126000     -2.833159000
B       -4.403173000      2.157496000     -1.175263000
C       -5.474207000      2.461087000     -2.377181000
C       -6.414026000      3.478390000     -2.421767000
C       -5.483357000      1.618819000     -3.481862000
C       -7.299942000      3.655201000     -3.475570000
C       -6.348349000      1.752436000     -4.551321000
C       -7.269246000      2.785223000     -4.546970000
C       -4.541031000      3.220708000      0.100693000
C       -3.797242000      4.390399000      0.200525000
C       -5.376584000      2.998782000      1.189467000
C       -3.798055000      5.221042000      1.309069000
C       -5.402503000      3.792284000      2.325697000
C       -4.595497000      4.911265000      2.392091000
C       -1.539547000      1.521719000      1.181844000
C       -2.125382000      1.682455000      2.453251000
C       -0.594844000      2.459259000      0.730111000
C       -1.900884000      2.858023000      3.152327000
C       -0.407498000      3.623506000      1.467711000
C       -1.087155000      3.867587000      2.652693000
H       -2.375910000      2.987485000      4.120036000
H        0.297149000      4.361179000      1.100421000
C       -1.578878000     -1.439039000      0.291698000
C       -0.500178000     -1.753637000      1.150701000
C       -2.223193000     -2.469480000     -0.428382000
C       -0.117722000     -3.081647000      1.280694000
C       -1.793113000     -3.781443000     -0.248056000
C       -0.752432000     -4.113021000      0.600985000
H        0.710302000     -3.318744000      1.938932000
H       -2.295245000     -4.566531000     -0.802168000
F       -6.521704000      4.368465000     -1.427035000
F       -8.180468000      4.652744000     -3.462692000
F       -8.110225000      2.938070000     -5.563726000
F       -6.304987000      0.908808000     -5.581027000
F       -4.602990000      0.605160000     -3.559125000
F       -3.040403000      4.816710000     -0.821883000
F       -3.028935000      6.309210000      1.343938000
F       -4.587421000      5.677798000      3.480002000
F       -6.193361000      3.486174000      3.353312000
F       -6.229736000      1.963827000      1.197469000
C       -3.325275000     -2.284474000     -1.448434000
H       -3.977804000     -3.156248000     -1.432556000
H       -3.951300000     -1.405281000     -1.326660000
H       -2.888440000     -2.230752000     -2.448786000
C       -0.326248000     -5.538707000      0.798877000
H       -0.714548000     -6.181137000      0.010408000
H        0.760414000     -5.623365000      0.812812000
H       -0.696846000     -5.916483000      1.754048000
C        0.290452000     -0.746290000      1.948707000
H        0.683783000      0.058779000      1.330898000
H       -0.306962000     -0.286703000      2.735779000
H        1.133599000     -1.246366000      2.420834000
C        0.291949000      2.248335000     -0.471740000
H        1.248956000      2.737884000     -0.295731000
H        0.493016000      1.192506000     -0.653780000
H       -0.133789000      2.675510000     -1.380277000
C       -2.905605000      0.600151000      3.162674000
H       -2.930439000     -0.346750000      2.622351000
H       -2.431154000      0.404356000      4.125964000
H       -3.932802000      0.909428000      3.366201000
C       -0.910359000      5.149865000      3.412309000
H       -0.321421000      4.981524000      4.316288000
H       -0.406144000      5.901038000      2.807547000
H       -1.877262000      5.551397000      3.718352000
C       -4.079237000      0.283438000      0.372901000
O       -4.729635000      0.759933000     -0.729104000
H       -4.231658000      0.899019000      1.254800000
H       -4.397941000     -0.734971000      0.610512000
