75

P       -2.528717000     -0.141649000     -0.786960000
C       -2.180470000      0.798516000     -2.314963000
H       -2.623206000      0.094877000     -3.027101000
H       -1.101849000      0.692417000     -2.455400000
C       -2.655270000      2.234741000     -2.608826000
H       -1.796527000      2.892979000     -2.473460000
H       -2.865807000      2.267305000     -3.679942000
B       -3.942333000      2.858258000     -1.774206000
C       -5.350789000      2.761136000     -2.638968000
C       -6.249939000      3.783726000     -2.910753000
C       -5.728821000      1.530367000     -3.154300000
C       -7.409564000      3.607836000     -3.653516000
C       -6.872111000      1.299772000     -3.894234000
C       -7.724117000      2.358501000     -4.151525000
C       -3.581224000      4.403997000     -1.353848000
C       -3.250933000      5.303215000     -2.358716000
C       -3.506388000      4.919812000     -0.071451000
C       -2.877959000      6.613262000     -2.134930000
C       -3.133754000      6.228390000      0.205563000
C       -2.818174000      7.081527000     -0.832444000
C       -2.044143000      0.369143000      0.873322000
C       -2.501830000     -0.454810000      1.919125000
C       -1.251205000      1.493469000      1.145612000
C       -2.114702000     -0.149719000      3.218526000
C       -0.894278000      1.749097000      2.462554000
C       -1.309225000      0.940340000      3.512255000
H       -2.467668000     -0.781201000      4.025589000
H       -0.279500000      2.616512000      2.673929000
C       -1.779092000     -1.760312000     -1.142348000
C       -0.415119000     -1.998222000     -0.906306000
C       -2.591281000     -2.781387000     -1.675692000
C        0.107898000     -3.253207000     -1.199218000
C       -2.018607000     -4.017033000     -1.947239000
C       -0.673361000     -4.275266000     -1.716876000
H        1.161253000     -3.432821000     -1.015848000
H       -2.645189000     -4.802935000     -2.353662000
F       -6.053791000      5.022863000     -2.448961000
F       -8.226746000      4.629682000     -3.882394000
F       -8.829723000      2.173634000     -4.859708000
F       -7.158968000      0.084812000     -4.354588000
F       -4.948081000      0.452470000     -2.929294000
F       -3.313570000      4.900806000     -3.636686000
F       -2.580688000      7.426777000     -3.143404000
F       -2.457414000      8.335158000     -0.587110000
F       -3.071758000      6.663783000      1.461370000
F       -3.785501000      4.159971000      1.000586000
C       -4.062981000     -2.607027000     -1.952532000
H       -4.267715000     -1.759060000     -2.606243000
H       -4.457015000     -3.498147000     -2.436192000
H       -4.629218000     -2.454123000     -1.030299000
C       -0.079599000     -5.613300000     -2.051938000
H       -0.785597000     -6.418080000     -1.849050000
H        0.176748000     -5.659677000     -3.112531000
H        0.829581000     -5.796304000     -1.481157000
C        0.519935000     -0.965985000     -0.333126000
H        0.374906000      0.018411000     -0.776490000
H        0.378768000     -0.858573000      0.743925000
H        1.552474000     -1.258566000     -0.514533000
C       -0.806767000      2.467224000      0.093482000
H       -0.325096000      1.991058000     -0.760013000
H       -1.664333000      3.024174000     -0.281261000
H       -0.101711000      3.181310000      0.514472000
C       -3.434282000     -1.617054000      1.708181000
H       -4.388293000     -1.255354000      1.316899000
H       -3.027071000     -2.362203000      1.022987000
H       -3.630700000     -2.111972000      2.656787000
C       -0.935429000      1.267755000      4.929105000
H       -0.948970000      0.378172000      5.557345000
H        0.055697000      1.717222000      4.981376000
H       -1.645358000      1.983569000      5.348976000
C       -5.135201000      1.886781000      0.195580000
O       -4.067668000      1.971534000     -0.565987000
O       -5.308288000      0.983479000      0.970804000
H       -5.863759000      2.701356000      0.062242000
H       -3.884372000     -0.414586000     -0.721569000
