56

 C                  1.19903100    2.58171600   -0.31837100
 H                  1.56375000    3.57145200   -0.52761700
 C                 -0.02576300    2.13552400    0.04392400
 C                  3.43939100    1.42498900   -0.74084900
 H                  4.01123200    1.79318100    0.11427300
 H                  3.62741400    2.09330100   -1.58131500
 C                  3.25006200   -1.02234900   -0.10236200
 N                  1.79272400   -0.87163100   -0.16552400
 N                  0.04091000    0.74943900    0.17416400
 C                  1.28226700    0.38825100   -0.11435000
 N                  2.02327400    1.46585600   -0.42291200
 C                  3.83296500   -0.00474100   -1.09143300
 H                  3.46304600   -0.25083200   -2.08871700
 H                  4.92024800   -0.08650400   -1.10377600
 C                  3.58784900   -2.43682600   -0.55028400
 H                  3.11719700   -3.16722400    0.11092900
 H                  3.23228600   -2.61224900   -1.56554600
 H                  4.66598400   -2.59738100   -0.51715000
 C                  3.76641100   -0.77627000    1.31801000
 H                  3.36614700   -1.53064000    1.99718800
 H                  4.85644900   -0.83043200    1.34664800
 H                  3.45664600    0.20101900    1.69192000
 B                 -1.17103400   -0.11753800    0.85457100
 C                 -2.52797800    0.66046000    0.43507800
 C                 -1.29873200   -1.63550000    0.28385600
 H                 -0.44179700   -2.29217900    0.49431800
 C                 -3.67770800   -0.00148300    1.21026200
 H                 -3.50973100    0.21018700    2.26994600
 H                 -4.63246100    0.47063100    0.94230800
 C                 -2.46516500   -2.28269800    1.06138000
 H                 -2.14645100   -2.37005600    2.10464900
 H                 -2.63689100   -3.30403300    0.70202600
 C                 -3.80198700   -1.52208900    1.03658300
 H                 -4.43305900   -1.91307900    1.83952700
 H                 -4.33935700   -1.74919200    0.11762100
 C                 -1.48230000   -1.63220800   -1.24092500
 H                 -0.56170000   -1.24662600   -1.69690700
 H                 -1.60186200   -2.65472700   -1.61742000
 C                 -2.73035500    0.60674700   -1.09131800
 H                 -1.95382500    1.21315200   -1.56985500
 H                 -3.68523800    1.08172800   -1.35489000
 C                 -2.66031200   -0.78364400   -1.73616000
 H                 -2.57621400   -0.66200500   -2.81996500
 H                 -3.59186600   -1.32249000   -1.57836200
 C                 -2.42661200    2.11949200    0.89640200
 H                 -2.25507500    2.11839500    1.97494300
 H                 -3.36951000    2.65154000    0.71902200
 C                 -1.30332000    2.90428400    0.20898400
 H                 -1.08851300    3.82147900    0.76038200
 H                 -1.63175300    3.21678300   -0.78538700
 C                  0.11663700   -0.64420800    2.87292100
 H                  0.06195000   -0.54093200    3.95881800
 H                  1.07248700   -0.20050000    2.54998900
 H                  0.15132400   -1.72004900    2.64184700
 O                 -0.97551700   -0.01011500    2.29739100
 H                  1.23081400   -1.56550500    0.30800000

