53

 C                  1.23249400    2.53487100   -0.40336400
 H                  1.58634400    3.53858900   -0.55651200
 C                  0.01297500    2.05561500   -0.06330500
 C                  3.50895600    1.43218200   -0.77888500
 H                  4.01958900    1.85296500    0.09056900
 H                  3.72264400    2.07127000   -1.63597700
 C                  3.34974800   -0.99222800   -0.04996100
 N                  1.89241700   -0.91126800   -0.22626400
 N                  0.09961900    0.66797500   -0.00735100
 C                  1.35707900    0.34023600   -0.25475900
 N                  2.07773600    1.43661900   -0.53458800
 C                  3.96287700    0.00191100   -1.04393100
 H                  3.66385400   -0.29630200   -2.05090000
 H                  5.05065500   -0.04690600   -0.98646000
 C                  3.78122200   -2.40897200   -0.39880100
 H                  3.28533100   -3.12821300    0.25573400
 H                  3.51967100   -2.64588500   -1.43002400
 H                  4.85845000   -2.52039700   -0.26888200
 C                  3.73843600   -0.65447500    1.39216000
 H                  3.32918900   -1.40205300    2.07285400
 H                  4.82420800   -0.64054200    1.50647300
 H                  3.33964300    0.31424600    1.69676900
 B                 -1.00592300   -0.29154100    0.65678600
 C                 -2.41085500    0.52731500    0.54864200
 C                 -1.25713500   -1.71820900   -0.08731600
 H                 -0.37471700   -2.37191200   -0.08488000
 C                 -3.41012500   -0.21522000    1.44488300
 H                 -3.05099900   -0.12730000    2.47709200
 H                 -4.38733700    0.28535100    1.42563000
 C                 -2.31623500   -2.47204800    0.75141600
 H                 -1.83681600   -2.78619800    1.68597100
 H                 -2.59796700   -3.40532400    0.25005400
 C                 -3.60549300   -1.70116300    1.10424000
 H                 -4.08197200   -2.19745500    1.95442800
 H                 -4.32068200   -1.79030700    0.28929700
 C                 -1.66462800   -1.53128100   -1.55218900
 H                 -0.83760600   -1.03876300   -2.07886900
 H                 -1.80884700   -2.49988000   -2.04452000
 C                 -2.88581800    0.61511600   -0.91903000
 H                 -2.20310800    1.27538700   -1.46239400
 H                 -3.86914400    1.10463800   -0.95830700
 C                 -2.92895800   -0.68771300   -1.72639800
 H                 -3.05093300   -0.43541700   -2.78371700
 H                 -3.80398600   -1.28057900   -1.46835600
 C                 -2.22315500    1.94614700    1.09845600
 H                 -1.83907900    1.86787900    2.11970700
 H                 -3.18096200    2.47878400    1.15177400
 C                 -1.25078300    2.79016300    0.26470400
 H                 -0.98395600    3.70311500    0.79989400
 H                 -1.73343900    3.10910000   -0.66120400
 O                 -0.44293800   -0.43955900    2.01394100
 H                  1.34526300   -1.53489200    0.35719600
 H                 -0.92585500   -1.08947600    2.52670500

