54

C        1.293212000      2.526594000     -0.686091000
H        1.679963000      3.515243000     -0.856571000
C        0.031368000      2.080610000     -0.469504000
C        3.578014000      1.332918000     -0.735394000
H        4.059969000      1.859450000      0.091643000
H        3.881121000      1.814970000     -1.665629000
C        3.266544000     -0.916161000      0.395466000
N        1.808909000     -0.831841000      0.171432000
N        0.090128000      0.697836000     -0.355183000
C        1.367371000      0.354314000     -0.304383000
N        2.137483000      1.417891000     -0.600778000
C        3.947676000     -0.145667000     -0.746392000
H        3.641965000     -0.589869000     -1.696377000
H        5.028761000     -0.253413000     -0.656717000
C        3.681082000     -2.381399000      0.338396000
H        3.164743000     -2.960719000      1.104746000
H        3.439802000     -2.808059000     -0.635503000
H        4.754157000     -2.475526000      0.512372000
C        3.671801000     -0.298515000      1.743664000
H        3.408028000     -0.946183000      2.577940000
H        4.753338000     -0.151670000      1.772766000
H        3.184976000      0.665272000      1.900600000
B       -0.981156000     -0.287944000      0.253854000
C       -2.330694000      0.562650000      0.534035000
C       -1.409704000     -1.611767000     -0.571404000
H       -0.553313000     -2.232284000     -0.860275000
C       -3.034400000     -0.219440000      1.648718000
H       -2.391791000     -0.199658000      2.532829000
H       -3.977386000      0.268351000      1.929146000
C       -2.243664000     -2.434900000      0.446943000
H       -1.543596000     -2.874759000      1.161103000
H       -2.726507000     -3.277919000     -0.061496000
C       -3.330345000     -1.684078000      1.263930000
H       -3.511312000     -2.252012000      2.180184000
H       -4.275324000     -1.713255000      0.723853000
C       -2.171930000     -1.300948000     -1.859535000
H       -1.537526000     -0.683954000     -2.508568000
H       -2.383833000     -2.220952000     -2.415493000
C       -3.233550000      0.681232000     -0.723763000
H       -2.787120000      1.408810000     -1.404539000
H       -4.195135000      1.114122000     -0.416055000
C       -3.473968000     -0.559566000     -1.587029000
H       -3.925710000     -0.240134000     -2.530539000
H       -4.191720000     -1.239177000     -1.132137000
C       -1.998611000      1.997551000      0.977314000
H       -1.391341000      1.959368000      1.887710000
H       -2.914314000      2.548088000      1.224350000
C       -1.224915000      2.802619000     -0.092929000
H       -0.941375000      3.778284000      0.304395000
H       -1.854465000      2.997699000     -0.960092000
C        0.885660000     -1.470876000      1.204527000
O       -0.207979000     -0.705491000      1.488688000
H        0.627335000     -2.460198000      0.813657000
H        1.478117000     -1.593900000      2.113005000












































