41

B    4.4259     0.6471     4.9617 
C    1.9403     0.5149     5.6606 
C    1.0850     0.0402     6.6546 
H    1.1930    -0.9834     6.9802 
C    0.1413     0.8804     7.2028 
C    0.0307     2.2072     6.7799 
H   -0.7034     2.8742     7.2068 
C    0.8901     2.6732     5.8159 
C    3.0147    -0.2354     4.9896 
H    3.1115    -1.2161     5.4490 
H    2.7348    -0.3760     3.9403 
C    0.9186     4.0709     5.2926 
H    1.9012     4.5169     5.4563 
H    0.7181     4.0831     4.2202 
H    0.1711     4.6790     5.7944 
C    5.5840    -0.1862     4.1896 
C    6.1150    -1.3510     4.7230 
C    7.1107    -2.0920     4.1124 
C    7.6170    -1.6634     2.8977 
C    7.1180    -0.5098     2.3220 
C    6.1193     0.2003     2.9707 
C    4.9377     1.1155     6.4431 
C    5.8172     2.1882     6.5374 
C    6.3191     2.6710     7.7334 
C    5.9399     2.0670     8.9196 
C    5.0715     0.9935     8.8820 
C    4.5992     0.5429     7.6588 
F    5.6532    -1.8078     5.8970 
F    7.5827    -3.2040     4.6704 
F    8.5717    -2.3574     2.2888 
F    7.5997    -0.0973     1.1519 
F    5.6795     1.3014     2.3514 
F    6.2240     2.8100     5.4255 
F    7.1545     3.7059     7.7593 
F    6.4047     2.5155    10.0800 
F    4.6992     0.4033    10.0160 
F    3.7668    -0.5126     7.7122 
N    1.7936     1.8087     5.3093 
H   -0.5226     0.5113     7.9740 
H    2.5045     2.1445     4.6553 
H    4.2080     1.6616     4.3231 























 
