42

B    5.0404     0.8939     4.7504 
C    2.6706     0.5941     5.7255 
C    1.9312     0.0907     6.7923 
H    2.1242    -0.9165     7.1317 
C    0.9754     0.8853     7.3938 
C    0.7502     2.1853     6.9482 
H    0.0102     2.8192     7.4142 
C    1.5040     2.6729     5.9028 
C    3.7587    -0.1177     5.0110 
H    4.0153    -1.0167     5.5652 
H    3.3917    -0.4283     4.0265 
C    1.4043     4.0583     5.3553 
H    2.3587     4.5730     5.4786 
H    1.1722     4.0317     4.2900 
H    0.6299     4.6192     5.8716 
C    6.3314     0.1900     4.0259 
C    6.5111    -1.1550     3.7535 
C    7.6373    -1.6606     3.1220 
C    8.6464    -0.7997     2.7338 
C    8.5153     0.5552     2.9836 
C    7.3734     1.0081     3.6167 
C    5.5217     1.4850     6.2245 
C    6.0911     0.6229     7.1529 
C    6.4953     1.0066     8.4192 
C    6.3242     2.3227     8.8127 
C    5.7515     3.2199     7.9322 
C    5.3663     2.7858     6.6731 
F    5.5805    -2.0554     4.0986 
F    7.7562    -2.9635     2.8837 
F    9.7296    -1.2665     2.1255 
F    9.4782     1.3945     2.6141 
F    7.2947     2.3354     3.8388 
F    6.2616    -0.6686     6.8373 
F    7.0346     0.1319     9.2618 
F    6.6983     2.7154    10.0238 
F    5.5701     4.4857     8.3010 
F    4.8058     3.7284     5.8858 
N    2.4131     1.8594     5.3406 
H    0.3978     0.4976     8.2234 
O    4.4901     1.9568     3.8616 
H    5.1199     2.6665     3.7097 
H    3.0996     2.2033     4.6062 





































 
