71

 P                  1.81813600    9.18426700    7.60107000
 B                  2.84046100    8.84475000   10.02282200
 F                  0.04241600    9.75197200   10.96340400
 F                 -1.96931100    8.08734900   11.44426100
 F                 -1.63643300    5.40439700   11.18692900
 F                  0.78032400    4.40883300   10.48419900
 F                  2.82974400    6.06351800   10.00906700
 F                  3.01779300    9.38432400   12.83002200
 F                  5.07881700    8.89184300   14.44358400
 F                  7.32726700    7.72623500   13.47098400
 F                  7.47130100    7.05833800   10.84956500
 F                  5.44068200    7.53679300    9.22279100
 O                  3.06202300    8.80025500    8.61463200
 C                  2.63598500    9.53635400    5.98998300
 C                  4.01662200    9.69956100    5.76135100
 C                  4.44856600   10.06794000    4.48839800
 H                  5.51447300   10.17884400    4.32112500
 C                  3.57938800   10.29168300    3.43234900
 C                  2.22277900   10.15086100    3.67980700
 H                  1.51341400   10.33099800    2.87904300
 C                  1.73906500    9.79203000    4.93110000
 C                  5.09150300    9.47497000    6.79363300
 H                  6.05928000    9.74935300    6.37694100
 H                  5.13350200    8.43383800    7.10315100
 H                  4.92819600   10.05770100    7.69808100
 C                  4.08503300   10.71181900    2.08102900
 H                  4.09231400   11.80066700    1.99373500
 H                  3.45063700   10.32227300    1.28503400
 H                  5.10259700   10.35981100    1.91438700
 C                  0.24598500    9.69418400    5.10291000
 H                 -0.26167500   10.14358800    4.25099700
 H                 -0.08469000   10.21384300    6.00530500
 H                 -0.08114200    8.65608300    5.18632900
 C                  0.99721300    7.54545800    7.37266400
 C                 -0.37518500    7.44013000    7.66415800
 C                 -0.98216700    6.18417000    7.65690800
 H                 -2.03946700    6.11542800    7.89292200
 C                 -0.27316900    5.02657600    7.38534900
 C                  1.07903000    5.14861900    7.08307900
 H                  1.65177400    4.25455100    6.86135000
 C                  1.72647500    6.37677900    7.06358300
 C                 -1.27265500    8.61524000    7.96929700
 H                 -2.06788500    8.31342000    8.65152000
 H                 -1.75127700    8.97462500    7.05489100
 H                 -0.73961000    9.45580100    8.40790700
 C                 -0.92763500    3.67619400    7.45249500
 H                 -0.56870300    3.02537500    6.65501900
 H                 -2.01098600    3.75718500    7.37386700
 H                 -0.69506400    3.19151900    8.40340500
 C                  3.19360700    6.39756600    6.73299500
 H                  3.53902500    5.39276000    6.49643100
 H                  3.77409800    6.77136500    7.57535700
 H                  3.39682100    7.04048100    5.87560900
 C                  1.54517300    7.97361900   10.50016200
 C                  0.29496000    8.42373700   10.87193900
 C                 -0.78075100    7.58876300   11.12152400
 C                 -0.61420800    6.22413300   10.99162800
 C                  0.62228000    5.71851400   10.62601600
 C                  1.66500000    6.59278000   10.39212700
 C                  4.14493500    8.53818500   10.93337500
 C                  4.11293400    8.83538500   12.29165900
 C                  5.16229400    8.57931000   13.15562400
 C                  6.30922600    7.98187300   12.66334800
 C                  6.37970900    7.64649900   11.32433200
 C                  5.30624900    7.92212000   10.49082300
 C                  3.33414900   11.40565000    9.77676200
 H                  4.36061600   11.08448700    9.93116600
 H                  3.15057300   12.34594900   10.28954600
 H                  3.11706000   11.48456400    8.71254400
 O                  2.50024200   10.40043400   10.38151000
 H                  1.55521400   10.59621100   10.27613100

