68

 P                  2.15887700    8.94500400    7.52646600
 B                  2.79753900    8.52825800    9.94225600
 F                 -0.09204900    8.18938500   10.92181700
 F                 -1.28858300    5.84909600   11.27666100
 F                  0.08526000    3.53394100   10.97239900
 F                  2.70829800    3.60669700   10.26734300
 F                  3.92014300    5.95337700    9.85512800
 F                  2.46735200    9.36557000   12.60025600
 F                  4.37120300    9.82707000   14.42535200
 F                  6.98075000    9.44316500   13.79127100
 F                  7.65357500    8.59215100   11.30750900
 F                  5.78334300    8.13811500    9.48312100
 O                  3.23033100    8.35023200    8.48931800
 C                  2.88571600    9.46388300    5.96879700
 C                  4.24246700    9.24077700    5.65165600
 C                  4.68683900    9.63362800    4.39280300
 H                  5.72606800    9.45864800    4.14079600
 C                  3.86130900   10.24081600    3.45875400
 C                  2.53632800   10.46739200    3.80644400
 H                  1.87453300   10.95303400    3.09866400
 C                  2.03112500   10.09520300    5.04155800
 C                  5.25726600    8.63204900    6.57946900
 H                  6.20738600    8.52960400    6.05977700
 H                  4.95788400    7.65530600    6.95349200
 H                  5.41105100    9.25886500    7.45522000
 C                  4.39025900   10.67766200    2.12395200
 H                  4.64746900   11.73878200    2.15052800
 H                  3.64436800   10.53962700    1.34172900
 H                  5.28763800   10.12365200    1.85328000
 C                  0.59576100   10.40904600    5.35455600
 H                  0.14384900   10.96183200    4.53367700
 H                  0.53101700   11.03044200    6.24966700
 H                  0.00927000    9.50148200    5.50887600
 C                  0.80473400    7.75607800    7.39482900
 C                 -0.51028700    8.01845700    7.83732800
 C                 -1.38267600    6.94279000    7.96450700
 H                 -2.38891200    7.13632900    8.31766700
 C                 -1.00542800    5.63534300    7.69519000
 C                  0.27989200    5.40996200    7.22091700
 H                  0.58821900    4.39899800    6.97876100
 C                  1.19503100    6.44020100    7.06280500
 C                 -1.05215400    9.36864700    8.23188100
 H                 -2.13792900    9.31502200    8.27874600
 H                 -0.78636700   10.16168500    7.54176900
 H                 -0.70301000    9.66017600    9.22231800
 C                 -1.94617900    4.49598200    7.95341100
 H                 -1.70043000    3.63025000    7.34024500
 H                 -2.97880300    4.78410500    7.76016100
 H                 -1.88002700    4.19286500    9.00175400
 C                  2.58026600    6.08483900    6.58932100
 H                  2.57335700    5.09640900    6.13449700
 H                  3.28298800    6.06802400    7.42470600
 H                  2.95741000    6.79011300    5.84751100
 C                  1.97169400    7.18111200   10.35715100
 C                  0.64805400    7.09208400   10.74933600
 C                  0.00205500    5.88185500   10.95498600
 C                  0.69688100    4.69916200   10.79466300
 C                  2.03193900    4.73900800   10.43176700
 C                  2.63281800    5.96646400   10.22490600
 C                  4.03679300    8.78048600   10.94755900
 C                  3.74161600    9.19560400   12.23998500
 C                  4.70557200    9.42691500   13.20381800
 C                  6.03770900    9.22810800   12.88449200
 C                  6.37660700    8.79587300   11.61653600
 C                  5.37917500    8.57542100   10.67910400
 C                  1.68629100   10.30932900    8.73912900
 O                  1.27783800   11.40350200    8.49698800
 O                  1.95487000    9.78690900    9.90462500

