69

P        1.687864000      9.546370000      7.681066000
B        2.905184000      8.356812000      9.973382000
F        0.036113000      8.031007000     10.832969000
F       -1.256762000      5.698059000     10.845898000
F        0.015162000      3.424670000     10.122412000
F        2.629715000      3.502870000      9.398704000
F        3.949593000      5.844651000      9.405514000
F        4.141929000      6.589831000     12.018956000
F        6.223946000      7.208832000     13.512641000
F        7.384080000      9.649108000     13.318949000
F        6.394035000     11.479014000     11.585160000
F        4.309500000     10.905656000     10.072473000
O        2.752115000      9.123581000      8.878705000
C        2.709312000      9.442062000      6.156559000
C        4.108754000      9.287182000      6.079037000
C        4.708186000      9.261077000      4.825093000
H        5.783949000      9.131102000      4.771509000
C        3.991903000      9.398283000      3.642600000
C        2.625659000      9.594440000      3.740808000
H        2.039901000      9.731934000      2.838319000
C        1.975221000      9.629639000      4.970964000
C        5.028253000      9.144166000      7.268374000
H        6.062173000      9.168077000      6.928520000
H        4.877954000      8.201765000      7.798322000
H        4.884782000      9.947931000      7.986725000
C        4.692089000      9.369043000      2.313301000
H        5.331519000     10.245791000      2.193529000
H        3.977915000      9.357734000      1.491214000
H        5.328360000      8.487253000      2.226680000
C        0.484777000      9.864675000      4.964043000
H        0.181176000     10.301598000      4.014020000
H        0.178399000     10.549794000      5.758217000
H       -0.070879000      8.935416000      5.103886000
C        0.575713000      8.086409000      7.540038000
C       -0.761718000      8.295031000      7.928977000
C       -1.658597000      7.233157000      7.884847000
H       -2.682158000      7.395948000      8.203493000
C       -1.274422000      5.966634000      7.466182000
C        0.044089000      5.780889000      7.071200000
H        0.364994000      4.795327000      6.748483000
C        0.977478000      6.811242000      7.101011000
C       -1.273758000      9.628976000      8.416127000
H       -2.321021000      9.543035000      8.700834000
H       -1.190041000     10.399476000      7.648499000
H       -0.715584000      9.975610000      9.286137000
C       -2.240192000      4.817141000      7.500578000
H       -1.959105000      4.042094000      6.788608000
H       -3.254522000      5.146566000      7.277069000
H       -2.251762000      4.366779000      8.496465000
C        2.384573000      6.486473000      6.674285000
H        2.563177000      5.414324000      6.761567000
H        3.127919000      7.000476000      7.279526000
H        2.558482000      6.778676000      5.636162000
C        2.056157000      7.019741000     10.149300000
C        0.721827000      6.936878000     10.506748000
C        0.029611000      5.737359000     10.516895000
C        0.677765000      4.572496000     10.150614000
C        2.010965000      4.613746000      9.781710000
C        2.667299000      5.828346000      9.793157000
C        4.142716000      8.687820000     10.910122000
C        4.670577000      7.798682000     11.842542000
C        5.756152000      8.099574000     12.648667000
C        6.349991000      9.343395000     12.554453000
C        5.845221000     10.272968000     11.661993000
C        4.764279000      9.936169000     10.869572000
C        1.516019000     11.183090000     10.964783000
O        1.690307000     10.107910000     11.469599000
H        1.191685000     12.046130000     11.569349000
H        1.670097000     11.346655000      9.886645000














































