22

H    0.4698     1.1484    -2.2112 
C    1.3559     0.7582    -1.7257 
C    2.2942     1.6435    -1.1967 
C    1.5222    -0.6243    -1.6494 
C    3.4219     1.1191    -0.5790 
H    2.1297     2.7112    -1.2754 
C    2.6452    -1.1743    -1.0347 
H    0.7697    -1.2765    -2.0730 
C    3.5394    -0.2545    -0.5297 
H    2.7890    -2.2460    -0.9673 
B    4.8254     1.3062     0.1997 
H    5.7771     1.6848    -0.4303 
H    4.7940     1.6642     1.3471 
C    5.8666    -1.0376    -0.6390 
H    5.6493    -2.0966    -0.7965 
H    6.8203    -0.9310    -0.1236 
C    4.6903    -1.0615     1.4862 
H    3.9007    -0.5657     2.0451 
H    4.4515    -2.1209     1.3674 
H    5.9161    -0.5248    -1.5963 
H    5.6325    -0.9553     2.0225 
N    4.8150    -0.4131     0.1742 








 
