28

H    0.5115     1.2725    -2.1735 
C    1.3520     0.8000    -1.6808 
C    2.4450     1.5591    -1.2879 
C    1.3281    -0.5634    -1.4243 
C    3.5514     0.9986    -0.6464 
H    2.4427     2.6279    -1.4692 
C    2.4071    -1.1575    -0.7869 
H    0.4752    -1.1632    -1.7142 
C    3.4970    -0.3803    -0.4143 
H    2.3899    -2.2212    -0.5860 
B    4.8104     1.9121    -0.2220 
H    5.7199     1.8536    -1.0296 
H    4.5129     3.0490     0.0461 
C    5.6689    -1.3688    -0.7795 
H    5.2875    -2.1612    -1.4316 
H    6.5684    -1.7235    -0.2737 
C    4.3667    -2.1045     1.1217 
H    3.5724    -1.8151     1.8072 
H    4.0601    -3.0036     0.5785 
H    5.9134    -0.4956    -1.3825 
H    5.2637    -2.3451     1.6931 
N    4.6633    -0.9913     0.2235 
C    6.6936     1.5650     1.4484 
H    7.3814     1.2412     0.6642 
H    6.7599     2.6465     1.5523 
H    6.9417     1.0887     2.3961 
O    5.3564     1.2439     1.1021 
H    5.1838     0.2047     0.8991 

















 
