25

H    0.4963     1.0451    -2.3519 
C    1.4055     0.7150    -1.8659 
C    2.1210     1.5864    -1.0626 
C    1.8660    -0.5800    -2.0665 
C    3.2969     1.2003    -0.4141 
H    1.7765     2.6057    -0.9337 
C    3.0317    -1.0019    -1.4480 
H    1.3254    -1.2639    -2.7069 
C    3.7123    -0.1061    -0.6309 
H    3.3795    -2.0089    -1.6214 
B    4.1543     2.2144     0.4803 
H    4.1502     3.3266     0.0268 
H    3.8335     2.2028     1.6479 
C    5.5175    -1.8040    -0.3967 
H    4.8102    -2.6110    -0.2270 
H    6.4392    -1.9909     0.1417 
C    4.5888    -0.7304     1.5630 
H    4.1864     0.1999     1.9519 
H    3.8461    -1.5225     1.6308 
H    5.7346    -1.6930    -1.4548 
H    5.4981    -1.0081     2.0941 
N    4.9305    -0.5435     0.1165 
O    7.1543     0.1952    -0.1955 
O    5.6370     1.7216     0.3953 
C    6.0635     0.5902     0.0756 


























 
