24

H    0.5531     1.0962    -2.1493 
C    1.4323     0.7198    -1.6412 
C    2.3775     1.6083    -1.1489 
C    1.5973    -0.6537    -1.4900 
C    3.5319     1.1746    -0.4855 
H    2.2281     2.6737    -1.2757 
C    2.7207    -1.1332    -0.8341 
H    0.8593    -1.3438    -1.8760 
C    3.6334    -0.2067    -0.3607 
H    2.8675    -2.1996    -0.7072 
B    4.7130     2.1193     0.0959 
H    5.7131     1.9646    -0.5940 
H    4.3898     3.2781     0.1531 
C    5.8963    -1.1221    -0.6239 
H    5.5346    -2.0279    -1.1068 
H    6.8196    -1.3218    -0.0828 
C    4.6334    -1.5955     1.4409 
H    3.8930    -1.1619     2.1082 
H    4.2684    -2.5400     1.0447 
H    6.0512    -0.3342    -1.3562 
H    5.5712    -1.7557     1.9692 
N    4.8658    -0.6493     0.3304 
H    5.0001     1.7302     1.2451 
H    5.1964     0.2648     0.7387 










 
