26

H     0.5138     1.1586    -2.0923 
C     1.4069     0.7706    -1.6186 
C     2.4567     1.6168    -1.3180 
C     1.4968    -0.5868    -1.3202 
C     3.6400     1.1697    -0.7119 
H     2.3821     2.6709    -1.5614 
C     2.6394    -1.0724    -0.7129 
H     0.6847    -1.2607    -1.5575 
C     3.6710    -0.1857    -0.4128 
H     2.7078    -2.1281    -0.4862 
B     4.8494     2.1996    -0.3875 
H     5.1757     2.7962    -1.3862 
H     4.4862     2.9558     0.4991 
C     5.8182    -1.2604    -0.8285 
H     5.2898    -2.0321    -1.3840 
H     6.7083    -1.6704    -0.3516 
C     4.6289    -1.7673     1.2369 
H     3.8708    -1.3928     1.9204 
H     4.2794    -2.6772     0.7590 
H     6.0884    -0.4339    -1.4792 
H     5.5505    -1.9815     1.7757 
N     4.9136    -0.7282     0.2234 
C     5.6696     0.4426     0.9599 
O     6.0350     1.3784     0.1010 
H     6.5265    -0.0597     1.4219 
H     4.9423     0.7644     1.7204 























 
