35

Cl   -0.8843    12.2698     6.7636 
Si    1.1207    11.2962     6.1352 
N     1.9818    12.5041     7.2133 
N     3.6508    12.8198     5.6158 
N     3.3570    14.3717     7.3349 
C     2.9773    13.2305     6.7310 
C     1.5382    12.8296     8.5694 
H     2.3283    12.5474     9.2729 
H     0.6500    12.2462     8.7836 
C     1.2578    14.3158     8.6464 
H     0.4963    14.5514     7.9025 
H     0.8821    14.6051     9.6272 
C     2.5581    15.0425     8.3677 
H     2.3741    16.0660     8.0331 
H     3.1702    15.0948     9.2725 
C     0.6372     9.6834     6.9252 
H     1.3602     8.8991     6.7104 
H    -0.3531     9.3906     6.5787 
H     0.5621     9.8122     8.0072 
C     0.7755    11.8208     4.3691 
H     0.7033    12.9091     4.3182 
H    -0.2025    11.4393     4.0759 
H     1.5245    11.4707     3.6586 
C     4.5985    13.6723     4.8842 
H     5.5998    13.2672     5.0317 
H     4.3709    13.5797     3.8238 
C     4.5392    15.0897     6.8711 
H     4.4943    16.0934     7.2894 
H     5.4464    14.6086     7.2488 
C     4.5320    15.1060     5.3572 
H     5.3868    15.6554     4.9646 
H     3.6215    15.5973     5.0078 
O     4.5673    11.1100     4.4439 
O     2.7980    10.6748     5.7327 
C     3.6994    11.4261     5.2140 



















 
