34

Cl   -0.9477    12.9298     6.9352 
Si    0.9520    11.3417     6.3489 
N     1.9473    12.5565     7.3107 
N     3.3936    12.8920     5.5552 
N     3.4086    14.3862     7.3289 
C     2.9039    13.2775     6.7515 
C     1.6033    12.8526     8.7042 
H     2.3649    12.4167     9.3602 
H     0.6450    12.3872     8.9135 
C     1.5160    14.3520     8.8972 
H     0.7305    14.7237     8.2382 
H     1.2550    14.6010     9.9255 
C     2.8599    14.9619     8.5562 
H     2.7717    16.0398     8.4053 
H     3.5766    14.7982     9.3679 
C     0.1551    10.0382     7.4231 
H     0.8147     9.8223     8.2677 
H     0.0877     9.1183     6.8372 
H    -0.8296    10.3153     7.7871 
C     0.4634    11.7705     4.5865 
H     0.5745    12.8435     4.4252 
H    -0.5932    11.5489     4.4403 
H     1.0616    11.2230     3.8552 
C     4.3539    13.6197     4.7467 
H     5.3353    13.1409     4.8154 
H     4.0345    13.5790     3.7047 
C     4.5681    15.0443     6.7422 
H     4.5984    16.0591     7.1363 
H     5.4911    14.5410     7.0511 
C     4.4463    15.0536     5.2291 
H     5.3073    15.5440     4.7766 
H     3.5482    15.6056     4.9468 
H     3.1462    11.9473     5.2874 
H     2.2096    10.5227     6.0017 























 
