62

P        2.659319000      2.367808000      7.808984000
F        5.462324000      5.585638000      7.184559000
F        2.337259000      4.265200000     10.449786000
F        3.619345000      3.646418000      4.717641000
C        2.545903000      4.952580000      6.363975000
C        3.849602000      4.873017000      8.740372000
F        0.902943000      7.146711000      3.265614000
B        3.093040000      4.113908000      7.579888000
F        0.356012000      7.814353000      5.833858000
F        3.721991000      5.599067000     12.302854000
C        5.006507000      5.579922000      8.439745000
F        2.543411000      5.060724000      2.727539000
C        2.803423000      4.654662000      5.033881000
C        1.156809000      6.790334000      5.570140000
F        6.843563000      6.922388000      9.059253000
C        1.430809000      6.448178000      4.256867000
C        3.448461000      4.900603000     10.068290000
F        5.980505000      6.931575000     11.628802000
C        5.298537000      6.275741000     10.703123000
C        5.736180000      6.271553000      9.389570000
C        2.265427000      5.378435000      3.985073000
C        4.145822000      5.589491000     11.045423000
F        1.421264000      6.402886000      7.844207000
C        1.724177000      6.049812000      6.589230000
C        2.250097000      1.404821000      6.294939000
C        3.450245000      0.717031000      5.632422000
C        1.103281000      0.404850000      6.499851000
H        1.877787000      2.183748000      5.619859000
C        3.037993000      0.104733000      4.294044000
H        3.814997000     -0.079465000      6.289978000
H        4.267280000      1.425233000      5.496425000
C        0.695784000     -0.211623000      5.162043000
H        1.421328000     -0.386541000      7.185538000
H        0.246274000      0.902262000      6.954730000
C        1.881690000     -0.876352000      4.468115000
H        3.895046000     -0.392109000      3.835286000
H        2.736369000      0.910227000      3.616554000
H       -0.108604000     -0.933167000      5.317118000
H        0.294001000      0.581065000      4.522641000
H        1.576702000     -1.278190000      3.500253000
H        2.221034000     -1.725930000      5.071159000
C        3.742446000      1.504142000      9.025778000
C        3.235189000      0.099060000      9.370860000
C        5.228524000      1.474398000      8.643487000
H        3.637368000      2.120775000      9.926210000
C        4.076954000     -0.521596000     10.485302000
H        3.301078000     -0.536492000      8.481954000
H        2.182468000      0.136914000      9.659937000
C        6.060418000      0.846663000      9.761493000
H        5.355812000      0.894301000      7.725148000
H        5.576109000      2.487338000      8.430367000
C        5.556155000     -0.551163000     10.109981000
H        3.717320000     -1.529116000     10.702259000
H        3.947369000      0.066119000     11.400027000
H        7.110651000      0.811890000      9.466059000
H        6.001951000      1.483397000     10.651010000
H        6.144825000     -0.974630000     10.925584000
H        5.694060000     -1.208534000      9.244576000
C       -0.392668000      3.550753000      7.345568000
O       -0.329670000      3.454967000      6.151563000
H       -0.118776000      4.477628000      7.876258000
H       -0.736467000      2.714885000      7.979189000
























