61

 P                  2.03772600    2.25648200    7.49361600
 F                  4.30980100    4.80581600    6.00207100
 F                  3.32511400    4.48523600   10.62000800
 F                  1.57264800    3.78599600    4.87870500
 C                  1.60025800    5.29847100    6.68997700
 C                  3.67756100    4.60405100    8.27029000
 F                  0.17653400    8.15884500    4.03933400
 B                  2.12002200    4.29910800    7.86527600
 F                  0.66209300    8.82324500    6.62482600
 F                  5.88575500    4.80263200   11.16683800
 C                  4.65070700    4.79718800    7.29689600
 F                  0.64238900    5.62167300    3.19180900
 C                  1.34787800    5.01981700    5.36236600
 C                  0.87927900    7.58128000    6.20703700
 F                  6.87634300    5.13539500    6.59405500
 C                  0.63290300    7.24661600    4.88647500
 C                  4.15606400    4.63366400    9.57343900
 F                  7.70483500    5.12618100    9.17861000
 C                  6.42273000    4.96467300    8.88941700
 C                  5.99592600    4.96845000    7.57293100
 C                  0.87038900    5.95394000    4.45868800
 C                  5.49232000    4.80112800    9.89872800
 F                  1.59366900    6.98845200    8.33317800
 C                  1.35328900    6.61043300    7.07047900
 C                  2.50746000    1.27672400    6.01184300
 C                  3.89221300    1.61910600    5.45127400
 C                  2.34054900   -0.23556600    6.20626600
 H                  1.76731700    1.59403100    5.27145300
 C                  4.13157500    0.86923200    4.14081800
 H                  4.66551800    1.33944400    6.17302900
 H                  3.97238800    2.69198200    5.28543100
 C                  2.57946100   -0.96646000    4.88450300
 H                  3.06401200   -0.59584700    6.94238700
 H                  1.34503700   -0.46526600    6.59452400
 C                  3.95715000   -0.63652300    4.31632900
 H                  5.12998600    1.09751600    3.76445600
 H                  3.41942100    1.23229400    3.39247700
 H                  2.47429600   -2.04243300    5.03489900
 H                  1.80958300   -0.66837800    4.16551900
 H                  4.10482000   -1.14870000    3.36410700
 H                  4.72643000   -1.01146900    5.00036900
 C                  2.76729800    1.55527900    9.02795400
 C                  2.02881700    0.34945200    9.62091100
 C                  4.27440700    1.28007300    8.92869700
 H                  2.62421100    2.38264700    9.73058300
 C                  2.59810800    0.02323100   11.00261600
 H                  2.13834100   -0.52089100    8.96873600
 H                  0.96123900    0.56570600    9.69654600
 C                  4.83234000    0.97353600   10.31814200
 H                  4.45080600    0.41875200    8.27773900
 H                  4.80298900    2.12805700    8.48670000
 C                  4.10584000   -0.21342300   10.94698900
 H                  2.09091000   -0.85084300   11.41496900
 H                  2.38947300    0.86024800   11.67663900
 H                  5.90343400    0.77432200   10.25248400
 H                  4.71011600    1.85761300   10.95405700
 H                  4.49358900   -0.40619300   11.94861400
 H                  4.30759300   -1.11052500   10.35133800
 H                  0.67594500    1.94649300    7.62168400
 H                  1.40485700    4.78562700    9.69843300
 O                  1.17865200    4.22879100    8.95081500

