96

P   10.2008    13.1359     4.3681 
B    7.6109    11.9580     5.6411 
C    9.8447    13.4553     6.1018 
C    8.7419    12.7173     6.5728 
C    8.5920    12.7075     7.9603 
H    7.7640    12.1574     8.3901 
C    9.4475    13.3663     8.8262 
C   10.5087    14.1426     8.3233 
C   10.6969    14.2089     6.9430 
C   11.8204    15.0490     6.3622 
H   12.5541    14.3910     5.8830 
H   11.4248    15.6810     5.5677 
C   11.0867    14.4087     3.4312 
C   10.3217    15.5335     3.0610 
C   10.9292    16.5429     2.3281 
H   10.3429    17.4124     2.0528 
C   12.2619    16.4705     1.9427 
C   12.9916    15.3516     2.3181 
H   14.0355    15.2843     2.0340 
C   12.4369    14.3119     3.0580 
C    8.8645    15.6824     3.4162 
H    8.5401    16.7072     3.2479 
H    8.6496    15.4293     4.4575 
H    8.2480    15.0351     2.7862 
C   12.8833    17.5676     1.1275 
H   13.9703    17.5109     1.1498 
H   12.5785    18.5478     1.4939 
H   12.5637    17.4934     0.0860 
C   13.3357    13.1541     3.4086 
H   14.3731    13.4296     3.2284 
H   13.1077    12.2738     2.8048 
H   13.2460    12.8535     4.4514 
C   10.8556    11.4818     4.0661 
C   11.5633    10.7394     5.0275 
C   11.9886     9.4623     4.6816 
H   12.5320     8.8829     5.4189 
C   11.7426     8.9044     3.4349 
C   11.0549     9.6661     2.5005 
H   10.8592     9.2533     1.5175 
C   10.6000    10.9453     2.7895 
C   11.9136    11.2324     6.4073 
H   11.0293    11.3074     7.0409 
H   12.3882    12.2141     6.3921 
H   12.6088    10.5368     6.8735 
C   12.1828     7.5048     3.1172 
H   11.4080     6.7928     3.4100 
H   13.0917     7.2444     3.6583 
H   12.3627     7.3793     2.0502 
C    9.8365    11.6886     1.7254 
H    8.7829    11.7758     1.9977 
H    9.8925    11.1498     0.7820 
H   10.2255    12.6950     1.5569 
C    6.9434    10.7075     6.4547 
C    5.5977    10.4729     6.6922 
F    4.6591    11.3216     6.2545 
C    5.1203     9.3614     7.3743 
F    3.8147     9.1961     7.5710 
C    6.0071     8.4173     7.8509 
F    5.5689     7.3477     8.5068 
C    7.3611     8.5969     7.6295 
F    8.2316     7.6913     8.0756 
C    7.7878     9.7166     6.9417 
F    9.1138     9.8207     6.7476 
C    6.5420    13.1159     5.1760 
C    6.3022    13.4589     3.8575 
F    6.9167    12.8044     2.8505 
C    5.4600    14.4869     3.4598 
F    5.3075    14.7792     2.1680 
C    4.7918    15.2223     4.4167 
F    3.9822    16.2141     4.0627 
C    4.9772    14.9104     5.7534 
F    4.3255    15.6008     6.6847 
C    5.8329    13.8806     6.0966 
F    5.9396    13.6115     7.4014 
C    9.2039    13.2107    10.2845 
C    9.1691    11.9336    10.8419 
H    9.3478    11.0750    10.2048 
C    8.9143    11.7588    12.1946 
H    8.8957    10.7609    12.6132 
C    8.6790    12.8594    13.0060 
H    8.4748    12.7244    14.0601 
C    8.6972    14.1349    12.4572 
H    8.4979    14.9965    13.0813 
C    8.9611    14.3091    11.1072 
H    8.9551    15.3039    10.6796 
C   11.4681    14.8114     9.2880 
H   11.0265    15.7368     9.6705 
H   11.6005    14.1626    10.1547 
C   12.8067    15.1435     8.6500 
H   13.3478    14.2209     8.4145 
H   13.4232    15.7122     9.3471 
C   12.5487    15.9243     7.3748 
H   11.9363    16.7993     7.6122 
H   13.4734    16.2939     6.9293 
H    8.1088    11.4635     4.6562 
H    8.9708    13.1303     3.7317 












 
