99

P       10.601241000     13.357253000      4.510833000
B        7.989057000     11.926146000      5.714153000
C       10.232177000     13.378044000      6.289839000
C        9.007424000     12.799784000      6.681347000
C        8.697023000     12.916146000      8.034058000
H        7.745359000     12.538154000      8.386213000
C        9.554786000     13.457708000      8.974209000
C       10.801815000     13.963720000      8.574548000
C       11.119393000     13.982945000      7.214969000
C       12.418606000     14.615587000      6.750885000
H       12.969240000     13.888411000      6.147192000
H       12.187596000     15.443391000      6.082718000
C       11.263311000     14.939353000      3.908971000
C       10.365614000     16.026101000      3.920936000
C       10.802690000     17.263827000      3.465145000
H       10.111276000     18.098479000      3.484309000
C       12.091931000     17.459475000      2.992293000
C       12.957636000     16.374363000      2.993058000
H       13.973225000     16.512700000      2.639636000
C       12.579649000     15.113347000      3.441364000
C        8.941063000     15.912433000      4.398631000
H        8.483954000     16.898446000      4.450428000
H        8.864823000     15.454357000      5.386234000
H        8.341931000     15.308925000      3.711260000
C       12.530778000     18.798832000      2.474688000
H       12.305878000     18.884466000      1.409356000
H       13.603967000     18.937727000      2.598818000
H       12.012595000     19.608272000      2.987390000
C       13.629796000     14.032381000      3.377288000
H       14.614544000     14.491035000      3.306057000
H       13.489534000     13.398247000      2.499312000
H       13.625776000     13.370054000      4.239405000
C       11.446722000     11.952968000      3.767069000
C       12.093689000     10.958474000      4.516125000
C       12.660556000      9.892141000      3.832336000
H       13.155705000      9.116131000      4.404575000
C       12.578698000      9.764750000      2.453543000
C       11.916097000     10.753080000      1.742069000
H       11.823769000     10.660636000      0.666065000
C       11.339526000     11.849697000      2.367352000
C       12.160117000     10.945326000      6.018851000
H       11.159881000     10.859984000      6.445201000
H       12.619775000     11.843646000      6.430971000
H       12.746487000     10.091263000      6.351594000
C       13.131210000      8.554717000      1.759359000
H       14.000683000      8.159305000      2.283380000
H       13.413984000      8.780346000      0.731793000
H       12.372071000      7.769825000      1.732593000
C       10.624424000     12.857780000      1.504328000
H        9.591970000     13.010700000      1.825598000
H       10.588714000     12.500666000      0.477542000
H       11.121903000     13.829476000      1.504863000
C        7.091464000     10.887867000      6.631925000
C        5.709047000     10.787822000      6.685048000
F        4.924175000     11.564182000      5.929031000
C        5.035070000      9.888259000      7.500830000
F        3.707074000      9.844011000      7.505446000
C        5.751338000      9.029526000      8.309324000
F        5.125353000      8.164866000      9.095909000
C        7.134483000      9.078980000      8.285414000
F        7.839127000      8.260335000      9.061580000
C        7.762699000      9.987714000      7.455206000
F        9.102279000      9.978446000      7.482399000
C        7.041301000     12.942016000      4.815151000
C        6.900748000     12.911652000      3.436329000
F        7.525332000     11.980105000      2.695292000
C        6.139833000     13.822984000      2.716613000
F        6.062827000     13.744133000      1.391364000
C        5.462362000     14.821769000      3.387495000
F        4.732983000     15.706448000      2.720606000
C        5.551719000     14.884714000      4.767852000
F        4.896216000     15.834204000      5.427165000
C        6.321660000     13.953540000      5.438589000
F        6.336063000     14.046744000      6.772365000
C        9.128394000     13.436213000     10.396979000
C        8.728836000     12.234710000     10.980444000
H        8.768137000     11.323705000     10.393978000
C        8.300296000     12.197752000     12.299650000
H        7.999937000     11.256066000     12.740463000
C        8.256376000     13.364061000     13.049897000
H        7.918141000     13.337039000     14.077461000
C        8.643346000     14.567436000     12.474769000
H        8.599305000     15.482626000     13.050963000
C        9.079817000     14.601928000     11.159377000
H        9.365933000     15.544272000     10.708697000
C       11.812606000     14.380740000      9.622989000
H       11.626404000     15.408626000      9.950329000
H       11.675065000     13.753804000     10.504481000
C       13.237364000     14.286207000      9.103644000
H       13.478640000     13.244320000      8.869546000
H       13.940979000     14.621527000      9.866465000
C       13.338445000     15.139708000      7.854446000
H       13.052237000     16.163291000      8.111576000
H       14.360047000     15.185792000      7.474760000
C        8.584507000     10.037326000      4.192278000
O        8.913551000     11.134862000      4.847099000
O        9.347056000      9.431890000      3.493778000
H        7.541363000      9.715345000      4.346275000
H        9.343697000     13.347835000      3.928779000































