51

C   14.3663     6.8689    10.7863 
C   14.4994     7.9663    11.6445 
H   14.4611     8.9673    11.2314 
C   14.6572     7.7974    13.0092 
H   14.7341     8.6574    13.6610 
C   14.7357     6.5128    13.5241 
H   14.8851     6.3603    14.5855 
C   14.6531     5.4142    12.6806 
H   14.7732     4.4259    13.0965 
C   14.4519     5.5662    11.3073 
N   14.4034     4.4451    10.4086 
C   15.7603     3.9396    10.0066 
C   15.6086     2.8939     8.8937 
H   15.3006     3.4064     7.9790 
H   16.5936     2.4607     8.7061 
C   14.5849     1.8173     9.2075 
H   14.8857     1.2259    10.0768 
H   14.5042     1.1229     8.3695 
C   13.2542     2.5004     9.4592 
H   12.4556     1.7764     9.6334 
H   12.9836     3.0745     8.5668 
C   13.3023     3.4622    10.6530 
C   11.9652     4.2055    10.6840 
H   11.7305     4.6148     9.7041 
H   11.9619     5.0137    11.4173 
H   11.1740     3.5043    10.9548 
C   13.3771     2.6433    11.9613 
H   13.0827     3.2468    12.8189 
H   14.3578     2.2202    12.1582 
H   12.6669     1.8168    11.8966 
C   16.5988     3.3422    11.1517 
H   16.7051     4.0447    11.9775 
H   17.6013     3.1304    10.7758 
H   16.1963     2.4073    11.5347 
C   16.5715     5.0963     9.4191 
H   16.0383     5.5568     8.5869 
H   17.5132     4.7050     9.0311 
H   16.8061     5.8618    10.1591 
C   12.8292     6.6535     8.5030 
C   11.5686     7.0761     8.8907 
F   11.4445     7.9227     9.9145 
C   10.4133     6.6452     8.2638 
F    9.2214     7.0697     8.6605 
C   10.5126     5.7454     7.2159 
F    9.4196     5.3100     6.6101 
C   11.7584     5.3064     6.7967 
F   11.8512     4.4428     5.7940 
C   12.8919     5.7802     7.4323 
F   14.0745     5.3450     6.9963 
B   14.0892     7.1677     9.2901 
Cl  15.0950     8.3439     8.4487 




 
