57

C    13.9318     6.4211    10.6810 
C    13.6457     7.4882    11.5428 
H    13.4403     8.4569    11.1010 
C    13.6218     7.3532    12.9166 
H    13.3905     8.2057    13.5420 
C    13.8989     6.1195    13.4947 
H    13.8841     5.9968    14.5695 
C    14.2055     5.0435    12.6833 
H    14.4354     4.0889    13.1307 
C    14.2208     5.2059    11.2995 
N    14.5790     4.0590    10.4339 
C    16.0747     3.6711    10.4687 
C    16.3023     2.7286     9.2816 
H    16.1855     3.3073     8.3588 
H    17.3415     2.3980     9.3179 
C    15.3476     1.5450     9.2481 
H    15.4848     0.9101    10.1268 
H    15.5650     0.9217     8.3799 
C    13.9168     2.0551     9.1680 
H    13.2042     1.2302     9.1180 
H    13.7962     2.6365     8.2471 
C    13.5162     2.9432    10.3507 
C    12.1826     3.6195    10.0387 
H    12.2643     4.2873     9.1812 
H    11.8147     4.1930    10.8874 
H    11.4550     2.8413     9.8051 
C    13.3415     2.1204    11.6230 
H    13.0105     2.7350    12.4563 
H    14.2217     1.5580    11.9173 
H    12.5475     1.3991    11.4236 
C    16.5438     3.0384    11.7745 
H    16.4340     3.7217    12.6129 
H    17.6106     2.8405    11.6618 
H    16.0641     2.0947    12.0141 
C    16.8759     4.9519    10.2425 
H    16.5503     5.4844     9.3496 
H    17.9237     4.6752    10.1189 
H    16.7981     5.6342    11.0883 
C    12.5678     7.4706     8.5406 
C    11.3384     7.3134     9.1719 
F    11.2104     6.5352    10.2571 
C    10.1636     7.9136     8.7471 
F     9.0254     7.7232     9.4102 
C    10.1759     8.7067     7.6176 
F     9.0621     9.2860     7.1884 
C    11.3635     8.8745     6.9317 
F    11.3853     9.6154     5.8275 
C    12.5162     8.2583     7.3921 
F    13.5992     8.4499     6.6368 
B    13.9511     6.7450     9.0790 
Cl   15.4165     7.9704     8.8652 
C    14.3858     5.5577     6.9269 
H    14.5032     4.4897     9.4697 
H    15.1582     6.2756     6.6446 
H    14.6726     4.5605     6.5885 
H    13.4481     5.8373     6.4388 
O    14.2301     5.5208     8.3273 
















 
