54

C    14.4253     6.6730    10.5212 
C    14.3983     7.9379    11.1241 
H    14.3198     8.8055    10.4798 
C    14.4672     8.1149    12.4915 
H    14.4379     9.1119    12.9113 
C    14.5719     7.0094    13.3277 
H    14.6206     7.1312    14.4017 
C    14.6251     5.7434    12.7758 
H    14.7199     4.8843    13.4216 
C    14.5617     5.5945    11.3921 
N    14.6711     4.2427    10.8001 
C    16.0760     3.6064    10.9184 
C    16.0771     2.4075     9.9640 
H    16.0152     2.7851     8.9382 
H    17.0424     1.9083    10.0617 
C    14.9289     1.4387    10.2076 
H    14.9957     1.0016    11.2069 
H    14.9931     0.6088     9.5029 
C    13.6043     2.1644    10.0211 
H    12.7597     1.4899    10.1717 
H    13.5419     2.5305     8.9911 
C    13.4181     3.3577    10.9647 
C    12.2257     4.1887    10.4894 
H    12.3973     4.5965     9.4925 
H    12.0077     5.0109    11.1700 
H    11.3537     3.5351    10.4473 
C    13.1441     2.8993    12.3924 
H    12.9899     3.7417    13.0625 
H    13.9075     2.2459    12.8034 
H    12.2117     2.3337    12.3688 
C    16.4818     3.1860    12.3270 
H    16.5693     4.0406    12.9927 
H    17.4750     2.7417    12.2464 
H    15.8312     2.4438    12.7785 
C    17.0776     4.6497    10.4210 
H    16.7905     5.0590     9.4523 
H    18.0484     4.1626    10.3210 
H    17.1787     5.4753    11.1245 
C    12.8860     7.1422     8.2741 
C    11.7650     7.5616     8.9740 
F    11.7378     7.5636    10.3143 
C    10.5923     7.9836     8.3620 
F     9.5527     8.3801     9.0921 
C    10.4992     7.9786     6.9853 
F     9.3839     8.3732     6.3837 
C    11.5789     7.5388     6.2391 
F    11.4937     7.5023     4.9126 
C    12.7256     7.1299     6.8922 
F    13.7173     6.6744     6.1102 
B    14.3163     6.6082     8.8945 
Cl   15.6932     7.7518     8.2172 
O    14.5691     5.2434     8.4076 
H    14.6470     4.4465     9.7690 
H    14.6998     5.2244     7.4556 


















