91

C     8.1194    11.7618     3.2116 
C     7.7263    12.2423     2.0227 
H     8.1667    13.1535     1.6105 
C     6.7749    11.5722     1.1153 
C     7.0900    11.4451    -0.2399 
H     8.0031    11.8948    -0.6135 
C     6.2692    10.7260    -1.0937 
H     6.5383    10.6199    -2.1370 
C     5.1032    10.1395    -0.6140 
H     4.4625     9.5778    -1.2812 
C     4.7569    10.2965     0.7204 
H     3.8387     9.8647     1.0986 
C     5.5826    11.0138     1.5749 
H     5.2916    11.1653     2.6069 
P     9.2681    12.7077     4.2668 
C     9.7314    14.2580     3.3758 
C     8.6705    15.1812     3.2271 
C     7.2884    14.9408     3.7788 
H     6.7667    15.8897     3.8946 
H     7.3231    14.4477     4.7523 
H     6.6909    14.3067     3.1218 
C     8.8894    16.3897     2.5734 
H     8.0576    17.0775     2.4636 
C    10.1344    16.7480     2.0842 
C    10.3429    18.0385     1.3434 
H    11.3446    18.4333     1.5123 
H     9.6183    18.7916     1.6521 
H    10.2248    17.8876     0.2679 
C    11.1863    15.8746     2.3174 
H    12.1838    16.1605     2.0010 
C    11.0219    14.6511     2.9611 
C    12.2828    13.8623     3.2213 
H    12.3557    12.9691     2.6024 
H    12.3563    13.5431     4.2600 
H    13.1483    14.4860     3.0024 
C    10.7024    11.5343     4.2920 
C    11.1302    10.7814     3.1795 
C    10.7254    11.0966     1.7631 
H    11.5558    10.8693     1.0933 
H    10.4550    12.1441     1.6437 
H     9.8652    10.5017     1.4499 
C    12.0147     9.7232     3.3720 
H    12.3234     9.1413     2.5093 
C    12.5291     9.4036     4.6222 
C    13.5042     8.2724     4.7894 
H    13.5069     7.9000     5.8131 
H    14.5176     8.6055     4.5548 
H    13.2673     7.4462     4.1193 
C    12.1567    10.1974     5.7005 
H    12.5708     9.9886     6.6809 
C    11.2589    11.2545     5.5592 
C    10.9016    12.0589     6.7842 
H    11.5445    11.7800     7.6178 
H     9.8615    11.9008     7.0756 
H    11.0133    13.1285     6.6023 
Al    7.4592     9.9495     3.8180 
C     7.9884     8.5771     2.4723 
H     7.7063     8.9437     1.4764 
H     9.0912     8.5876     2.4752 
C     7.5332     7.1121     2.5912 
C     6.0150     7.0191     2.4311 
H     5.7100     7.4420     1.4709 
H     5.5010     7.5724     3.2196 
H     5.6784     5.9796     2.4700 
C     7.9292     6.5383     3.9552 
H     7.6825     5.4767     4.0305 
H     7.3956     7.0462     4.7658 
H     9.0114     6.6290     4.1115 
C     8.1951     6.2633     1.5006 
H     7.8754     5.2189     1.5563 
H     9.2835     6.2921     1.5955 
H     7.9348     6.6474     0.5122 
C     5.8123     9.7415     4.9152 
H     4.9573     9.5556     4.2515 
H     5.9379     8.7968     5.4671 
C     5.4032    10.8261     5.9323 
C     4.9980    12.1077     5.2018 
H     5.8186    12.4852     4.5866 
H     4.7215    12.8906     5.9130 
H     4.1367    11.9291     4.5520 
C     4.2120    10.3395     6.7639 
H     3.8842    11.1046     7.4732 
H     4.4771     9.4435     7.3301 
H     3.3672    10.0906     6.1175 
C     6.5636    11.1427     6.8783 
H     7.3981    11.6000     6.3394 
H     6.9282    10.2350     7.3658 
H     6.2488    11.8442     7.6555 
O     8.7703     9.4327     5.2290 
H     9.6579     9.8331     5.1692 
H     8.8794     8.4715     5.2444 

















 
