93

C     8.1626    11.5674     2.5231 
C     7.8330    12.3005     1.4431 
H     8.3596    13.2290     1.2139 
C     6.7392    12.0352     0.4969 
C     6.1718    13.1139    -0.1853 
H     6.5662    14.1103    -0.0209 
C     5.1014    12.9249    -1.0443 
H     4.6616    13.7723    -1.5539 
C     4.5959    11.6478    -1.2515 
H     3.7619    11.4967    -1.9244 
C     5.1726    10.5643    -0.6017 
H     4.7938     9.5642    -0.7700 
C     6.2366    10.7562     0.2653 
H     6.6951     9.9085     0.7528 
P     9.4387    12.3123     3.5191 
C     9.8029    14.0253     3.0634 
C     9.0312    15.0364     3.6661 
C     7.9097    14.7321     4.6253 
H     7.3355    15.6336     4.8294 
H     8.2861    14.3516     5.5785 
H     7.2257    13.9818     4.2213 
C     9.3107    16.3592     3.3521 
H     8.7186    17.1419     3.8131 
C    10.3166    16.7064     2.4565 
C    10.6146    18.1493     2.1642 
H    11.1593    18.2592     1.2277 
H    11.2267    18.5792     2.9599 
H     9.6975    18.7351     2.1036 
C    11.0345    15.6880     1.8459 
H    11.7983    15.9399     1.1188 
C    10.7943    14.3465     2.1262 
C    11.5963    13.3015     1.3965 
H    10.9708    12.4692     1.0694 
H    12.3849    12.8885     2.0284 
H    12.0598    13.7368     0.5128 
C    10.9792    11.4074     3.8106 
C    11.3769    10.2887     3.0585 
C    10.5516     9.6772     1.9599 
H    11.1465     8.9483     1.4121 
H    10.1681    10.4093     1.2516 
H     9.6908     9.1550     2.3824 
C    12.5880     9.6831     3.3692 
H    12.8995     8.8222     2.7885 
C    13.4045    10.1363     4.3974 
C    14.6920     9.4333     4.7200 
H    15.3660    10.0793     5.2807 
H    15.1985     9.1055     3.8124 
H    14.4974     8.5460     5.3264 
C    12.9804    11.2309     5.1354 
H    13.5978    11.5943     5.9488 
C    11.7783    11.8786     4.8706 
C    11.3881    13.0374     5.7520 
H    12.1579    13.2056     6.5022 
H    10.4539    12.8243     6.2769 
H    11.2646    13.9620     5.1860 
Al    7.2530    10.0353     3.5993 
C     6.9710     8.3330     2.5846 
H     5.9425     8.3859     2.1999 
H     7.6054     8.2872     1.6884 
C     7.1173     6.9827     3.3204 
C     6.4105     7.0271     4.6774 
H     5.3679     7.3347     4.5605 
H     6.8973     7.7340     5.3530 
H     6.4216     6.0445     5.1564 
C     8.5962     6.6478     3.5301 
H     8.7063     5.6926     4.0507 
H     9.0944     7.4201     4.1175 
H     9.1083     6.5636     2.5671 
C     6.4857     5.8666     2.4807 
H     6.6120     4.8904     2.9575 
H     6.9459     5.8240     1.4906 
H     5.4157     6.0432     2.3472 
C     5.8063    10.7704     4.7477 
H     5.6397     9.9507     5.4648 
H     6.2506    11.5701     5.3582 
C     4.4336    11.2421     4.2393 
C     3.8337    10.2207     3.2713 
H     4.4178    10.1675     2.3495 
H     2.8091    10.4904     3.0011 
H     3.8168     9.2237     3.7197 
C     3.4712    11.4214     5.4189 
H     2.5014    11.8039     5.0872 
H     3.8845    12.1222     6.1478 
H     3.3047    10.4690     5.9275 
C     4.5708    12.5841     3.5192 
H     5.2790    12.5148     2.6909 
H     4.9231    13.3549     4.2101 
H     3.6100    12.9125     3.1135 
C     8.9603    10.0081     5.9762 
O     8.6133     9.6923     4.7693 
O     8.7899    11.0780     6.5225 
H     9.4791     9.1902     6.5036 
H     8.9049    12.3974     4.8027 























