57

S     3.6520     7.2371     0.7889 
F     5.6583     7.9924     4.0547 
F     6.5516     9.2666     6.2107 
F     1.2360     8.4523     5.6511 
F     0.5695     7.6072     1.4875 
F     2.0791     5.5822     5.4817 
F     2.1545     9.7304     7.7791 
F     4.8139    10.1521     8.0991 
F    -1.7538     6.3903     1.7676 
F    -0.2738     4.3449     5.7217 
F    -2.2172     4.7428     3.8724 
C     5.2304     7.7572     0.1605 
C     3.1630     8.2943     2.1211 
C     1.4456     6.6656     3.4901 
C     3.0114     9.2829     6.8689 
C     4.7544     8.3757     4.9692 
C     3.4067     8.1103     4.7653 
C     5.2486     9.0457     6.0727 
C     2.9102     9.5961     2.0527 
H     2.6555    10.0276     3.0229 
C     6.1085     8.5269     0.9103 
H     5.8410     8.8520     1.9064 
C     2.5605     8.6031     5.7476 
C     5.5580     7.3255    -1.1155 
H     4.8598     6.7285    -1.6881 
C     0.4219     6.8256     2.5701 
C     6.7910     7.6729    -1.6473 
H     7.0520     7.3386    -2.6436 
C     1.1575     5.8003     4.5403 
C     7.6919     8.4470    -0.9232 
C     4.3655     9.5016     7.0355 
C     7.3297     8.8686     0.3571 
H     8.0212     9.4700     0.9350 
C    -0.8097     6.1966     2.6832 
C    -1.0487     5.3552     3.7508 
C     2.8206    10.6082     0.9352 
C    -0.0525     5.1521     4.6916 
C     9.0364     8.8051    -1.4881 
H     9.0663     8.6551    -2.5659 
H     9.8130     8.1821    -1.0398 
H     9.2864     9.8443    -1.2751 
C     2.7716    10.0030    -0.4663 
H     1.9986     9.2349    -0.5384 
H     3.7292     9.5814    -0.7702 
H     2.5273    10.7875    -1.1847 
C     1.5112    11.3787     1.1733 
H     0.6515    10.7087     1.1173 
H     1.3949    12.1549     0.4152 
H     1.5098    11.8573     2.1540 
C     4.0007    11.5818     1.0497 
H     4.9469    11.0758     0.8524 
H     4.0469    12.0264     2.0456 
H     3.8860    12.3886     0.3227 
B     2.9330     7.3340     3.4224 
O     4.9826     5.0123     1.5766 
O     3.8842     6.1423     3.1934 
C     4.3120     5.8648     2.0357 
















 
