56

S     3.0375     7.4544     1.2423 
F     3.6512     8.9062     5.2402 
F     3.4057    10.1140     7.5793 
F    -1.0581     8.8549     4.8092 
F    -0.0908     6.3311     1.5984 
F     2.7162     6.3408     5.3966 
F    -1.2684    10.0560     7.1686 
F     0.9537    10.7051     8.5848 
F    -0.1124     3.6771     1.6415 
F     2.6968     3.6850     5.3991 
F     1.2958     2.3203     3.5242 
C     4.0031     6.2005     2.0604 
C     2.6128     8.6433     2.5142 
C     1.2888     6.4824     3.5173 
C    -0.0643     9.7766     6.6777 
C     2.4021     9.1816     5.6552 
C     1.3039     8.8395     4.8779 
C     2.3101     9.8075     6.8867 
C     3.1808     9.8468     2.5305 
H     2.7746    10.4686     3.3275 
C     4.7786     6.5029     3.1692 
H     4.8181     7.5140     3.5536 
C     0.0757     9.1564     5.4464 
C     3.8715     4.9011     1.5925 
H     3.2344     4.6825     0.7445 
C     0.5833     5.7310     2.5859 
C     4.5462     3.8849     2.2500 
H     4.4412     2.8649     1.9011 
C     1.9722     5.7324     4.4667 
C     5.3265     4.1516     3.3734 
C     1.0642    10.1087     7.4036 
C     5.4366     5.4702     3.8149 
H     6.0246     5.6899     4.6973 
C     0.5611     4.3436     2.5759 
C     1.2718     3.6480     3.5346 
C     4.2590    10.5475     1.7129 
C     1.9836     4.3498     4.4910 
C     5.9878     3.0362     4.1290 
H     6.2048     2.1909     3.4776 
H     5.3251     2.6863     4.9235 
H     6.9157     3.3692     4.5918 
C     3.8450    10.7341     0.2458 
H     2.8847    11.2472     0.1842 
H     3.7501     9.8004    -0.3101 
H     4.5907    11.3413    -0.2715 
C     4.4371    11.9466     2.3190 
H     3.5077    12.5152     2.2575 
H     5.2125    12.4982     1.7854 
H     4.7251    11.8770     3.3695 
C     5.6125     9.8296     1.8260 
H     5.6226     8.8215     1.4078 
H     5.9093     9.7489     2.8731 
H     6.3771    10.4047     1.2996 
B     1.3399     8.1191     3.4183 
H     0.3683     8.4616     2.7970 
H     4.0286     8.0801     0.5918 


















 
