58

S     3.0206     7.4961     0.5286 
F     5.1847     8.2669     4.4001 
F     5.8028     9.5768     6.6254 
F     0.5983     9.0210     5.2726 
F     0.3838     8.6162     1.4462 
F     1.3531     5.7296     5.0573 
F     1.2515    10.3280     7.4744 
F     3.8501    10.6251     8.1896 
F    -2.0968     7.7104     1.4071 
F    -1.1570     4.8332     4.9906 
F    -2.9109     5.8183     3.1659 
C     4.4913     6.5055     0.6065 
C     3.1002     8.4665     2.0370 
C     1.0087     7.1942     3.2394 
C     2.2115     9.8066     6.7200 
C     4.1742     8.7374     5.1402 
C     2.8578     8.5382     4.7357 
C     4.5270     9.4234     6.2880 
C     3.4262     9.7600     2.0136 
H     3.3646    10.2619     2.9789 
C     5.6305     6.8754     1.3161 
H     5.6422     7.8069     1.8663 
C     1.9002     9.1081     5.5630 
C     4.4848     5.2878    -0.0757 
H     3.6004     4.9868    -0.6252 
C     0.0710     7.6687     2.3319 
C     5.5970     4.4604    -0.0422 
H     5.5731     3.5184    -0.5780 
C     0.5303     6.2360     4.1240 
C     6.7379     4.8122     0.6759 
C     3.5341     9.9620     7.0873 
C     6.7290     6.0294     1.3532 
H     7.6010     6.3259     1.9247 
C    -1.2409     7.2212     2.2955 
C    -1.6621     6.2577     3.1926 
C     3.8263    10.6877     0.8773 
C    -0.7658     5.7561     4.1197 
C     7.9499     3.9233     0.6919 
H     8.6217     4.1745    -0.1319 
H     7.6731     2.8750     0.5825 
H     8.5102     4.0366     1.6195 
C     2.6651    10.8497    -0.1131 
H     1.7617    11.1813     0.4016 
H     2.4421     9.9156    -0.6259 
H     2.9270    11.5997    -0.8631 
C     4.1384    12.0591     1.4871 
H     3.2639    12.4665     1.9986 
H     4.4344    12.7631     0.7078 
H     4.9545    11.9885     2.2097 
C     5.0809    10.1893     0.1502 
H     4.9183     9.2285    -0.3354 
H     5.9174    10.0908     0.8451 
H     5.3654    10.9134    -0.6168 
B     2.5364     7.7383     3.3638 
C     3.3018     5.3813     2.8795 
O     3.4681     6.4159     3.4993 
H     2.3921     5.2129     2.2975 
H     4.0821     4.6202     2.9278 

















 
