58

 P                 10.40782800    5.34217200    2.76610500
 Si                11.21685400    8.35408500    3.90301800
 F                 13.39758400    7.31314800    5.02996300
 F                 13.56890300    9.43544500    4.51232100
 F                 15.37917600    7.84302900    3.43764600
 F                 14.13406200    8.74720600    1.94379900
 F                 13.90047400    6.64743900    2.44091000
 F                 10.60071800   11.02682000    3.84157300
 F                 11.72322600   10.38183700    2.10095200
 F                  8.41397700    9.62601200    2.93439300
 F                  9.45014300    9.27229100    1.07613000
 F                  9.14818700   11.28126600    1.76181800
 F                  9.47398200    9.10387300    5.76007100
 F                 11.35749700   10.18152000    6.06734000
 F                 12.44777400    8.22946900    7.32559100
 F                 10.42871700    8.45371100    8.01980600
 F                 10.94091500    6.80299800    6.73654800
 C                 13.15632100    8.22834900    4.04622500
 C                 14.15074800    7.86152400    2.92846800
 C                 10.73709700   10.01349200    2.95441500
 C                  9.41515500   10.04443500    2.15500700
 C                 10.83943000    8.97425600    5.75321300
 C                 11.17689900    8.09910600    6.98299600
 C                 10.04733300    6.89516900    3.74620700
 H                  9.17455300    7.35865600    3.28033100
 H                  9.72579700    6.64680500    4.75646100
 C                 10.70889400    4.05626300    4.10546000
 C                 10.74783400    2.66992900    3.45486800
 H                  9.74875300    2.31031700    3.20807200
 H                 11.18506400    1.96125100    4.16270800
 H                 11.35892400    2.65974000    2.54978600
 C                  9.73904300    4.01983300    5.28813800
 H                  9.71699300    4.95592600    5.84284400
 H                 10.07955300    3.25008500    5.98675200
 H                  8.72345200    3.76782200    4.99448900
 C                 12.11057200    4.37977800    4.63772700
 H                 12.85596100    4.37674400    3.84096700
 H                 12.39578100    3.62802800    5.37828400
 H                 12.13837100    5.34938700    5.13264900
 C                  8.77004500    5.01574400    1.88619600
 C                  9.03101300    3.92963400    0.83232100
 H                  9.32022900    2.97604600    1.26763000
 H                  8.11612700    3.76736400    0.25646000
 H                  9.81575800    4.23835600    0.13923400
 C                  7.59807700    4.60826400    2.77539300
 H                  6.67756500    4.61212300    2.18434700
 H                  7.72509100    3.60195500    3.17367400
 H                  7.45991200    5.29901300    3.61005900
 C                  8.39247000    6.29167400    1.12058400
 H                  7.96358400    7.05965100    1.76407600
 H                  9.24526400    6.72562400    0.59454000
 H                  7.63205400    6.03963700    0.37758700
 O                 11.63579500    7.75665100    1.48331800
 H                 11.59809900    6.78347400    1.53320100
 C                 11.98638500    8.13860800    0.15876600
 H                 11.19563600    7.85695100   -0.54001500
 H                 12.10800700    9.21671900    0.14109900
 H                 12.92545400    7.66968000   -0.13872200

