56

P       10.300065000      5.564449000      2.425305000
Si      11.190337000      8.318674000      3.830383000
F       11.280480000      9.936194000      6.032329000
F       13.215235000      9.758575000      5.041076000
F       13.166704000      8.632322000      7.461556000
F       13.408790000      7.176418000      5.888937000
F       11.512710000      7.365908000      6.910000000
F       13.620272000      8.357791000      2.717337000
F       12.050570000      7.904934000      1.274349000
F       12.689371000     11.025146000      2.676355000
F       11.296886000     10.422376000      1.136480000
F       13.417289000     10.193389000      0.827837000
F        8.951636000      9.114955000      2.529850000
F       10.009993000     10.729676000      3.540250000
F        8.552827000     10.520267000      5.515699000
F        7.384275000      9.073045000      4.445870000
F        8.998541000      8.423480000      5.719229000
C       12.107951000      9.069138000      5.394217000
C       12.561068000      8.043241000      6.445334000
C       12.367711000      8.708463000      2.321628000
C       12.450147000     10.126838000      1.732251000
C        9.615391000      9.442507000      3.666501000
C        8.602407000      9.377423000      4.859398000
C       11.008308000      6.481870000      3.915324000
H       10.516658000      6.198031000      4.848345000
H       12.049087000      6.157773000      4.015707000
C       11.580487000      4.175526000      2.305992000
C       11.027789000      3.093570000      1.373467000
H       10.265132000      2.489306000      1.864421000
H       11.840308000      2.423718000      1.079888000
H       10.599797000      3.521633000      0.464318000
C       12.048710000      3.518593000      3.606350000
H       12.507024000      4.225740000      4.299085000
H       12.814602000      2.775760000      3.364489000
H       11.247421000      3.003937000      4.129730000
C       12.796668000      4.817220000      1.622678000
H       12.531757000      5.245058000      0.655126000
H       13.563745000      4.054420000      1.465343000
H       13.245022000      5.609168000      2.227062000
C        8.685819000      4.885215000      3.113967000
C        7.897773000      4.292143000      1.937577000
H        8.375045000      3.410136000      1.514606000
H        6.908263000      3.992622000      2.294051000
H        7.764536000      5.033243000      1.148491000
C        8.787335000      3.862097000      4.241427000
H        7.790008000      3.684444000      4.654137000
H        9.165764000      2.904517000      3.884272000
H        9.425195000      4.202004000      5.060487000
C        7.904678000      6.106050000      3.609340000
H        8.330421000      6.516138000      4.524527000
H        7.853891000      6.884690000      2.845721000
H        6.879131000      5.806512000      3.839901000
C        8.711260000      7.967225000     -0.089435000
O        7.718621000      7.341384000      0.153164000
H        8.661078000      8.953240000     -0.584179000
H        9.710804000      7.586582000      0.177466000

















