55

 P                 10.04642200    5.67596300    2.18775100
 Si                10.61477200    8.76511200    3.16028900
 F                 10.28336400    7.72746500    5.77495000
 F                 10.48279500    9.88419700    5.80784100
 F                 12.48638300    8.67004000    6.97675100
 F                 13.12801100    9.65273500    5.17047300
 F                 12.94253500    7.49830600    5.23346000
 F                 12.64994400   10.53856200    2.40908500
 F                 13.34530100    8.48027200    2.62611500
 F                 11.31026900    9.81802500    0.13206200
 F                 11.92575200    7.76880400    0.41606000
 F                 13.39976900    9.31346100    0.13144900
 F                  9.82987400   11.16817200    1.99080400
 F                 10.65165900   11.55286400    3.95862300
 F                  8.19702100    9.64159500    4.58519200
 F                  8.21707900   11.79727300    4.55024000
 F                  7.56403900   10.68755100    2.82408100
 C                 10.94541500    8.77789900    5.17948200
 C                 12.40339100    8.64953300    5.64994200
 C                 12.28605400    9.24975500    2.22400300
 C                 12.22892200    9.04921200    0.69769800
 C                  9.91155000   10.65938100    3.27063900
 C                  8.45451400   10.71899200    3.82246700
 C                 10.99311700    6.77996100    3.20172100
 H                 10.90896100    6.37483100    4.21101500
 H                 12.03970400    6.65775500    2.91894700
 C                 11.08633400    4.22692600    1.68650300
 C                 10.26514600    3.17766300    0.93322400
 H                  9.55110800    2.66525400    1.57589100
 H                 10.94917600    2.42497300    0.53538300
 H                  9.72760400    3.61348200    0.08850300
 C                 11.79240300    3.59966700    2.89279500
 H                 12.38944900    4.33295200    3.43597700
 H                 12.47049800    2.82525800    2.52780900
 H                 11.10096800    3.13218100    3.59067000
 C                 12.15244300    4.78334100    0.72911800
 H                 11.70862200    5.23976500   -0.15642000
 H                 12.78018100    3.95179300    0.40273800
 H                 12.79864000    5.51956300    1.20607600
 C                  8.43441000    5.23350500    2.98448600
 C                  7.43638900    4.79651300    1.90593900
 H                  7.74546200    3.89846000    1.37480600
 H                  6.48062800    4.58416100    2.38955100
 H                  7.27060500    5.59368800    1.17963900
 C                  8.63897700    4.12005900    4.01790800
 H                  7.69225500    3.96351000    4.53829400
 H                  8.92650200    3.17307800    3.56418700
 H                  9.38325000    4.39330300    4.76876200
 C                  7.86154200    6.46128900    3.70632100
 H                  8.52843300    6.83159000    4.48491400
 H                  7.64661900    7.27565900    3.02010600
 H                  6.93054100    6.15313300    4.18704200
 O                  9.40917200    8.45512900    2.01648600
 H                  9.71750800    6.26160500    0.96565600
 H                  9.01882200    9.22048300    1.57989100

