106

Al    4.7906     5.7699     3.2716 
C     6.5805     5.0701     3.0237 
H     6.8380     4.7719     4.0550 
Si    7.8867     6.3587     2.6213 
C     7.2123     8.0678     3.0070 
H     6.8820     8.1520     4.0453 
H     6.3497     8.2805     2.3649 
H     7.9514     8.8514     2.8256 
C     9.4160     6.0650     3.6649 
H     9.8449     5.0794     3.4770 
H     9.1755     6.1272     4.7289 
H    10.1817     6.8139     3.4516 
C     8.3662     6.4094     0.8073 
H     9.1020     7.2045     0.6632 
H     7.5031     6.6409     0.1791 
H     8.8044     5.4789     0.4456 
Si    6.7180     3.4824     2.0186 
C     5.6094     2.1359     2.7099 
H     4.5564     2.4229     2.6636 
H     5.8593     1.8784     3.7413 
H     5.7292     1.2319     2.1077 
C     6.2396     3.7084     0.2223 
H     6.5107     2.8015    -0.3249 
H     6.7392     4.5451    -0.2639 
H     5.1603     3.8317     0.1184 
C     8.4841     2.8377     2.1152 
H     8.5567     1.8744     1.6048 
H     8.7871     2.6866     3.1540 
H     9.2067     3.5118     1.6517 
C     3.9676     6.6794     4.7715 
H     2.9222     6.5418     4.4478 
Si    4.0073     8.4895     5.2804 
C     4.2422     9.7247     3.8894 
H     3.9312    10.7073     4.2547 
H     3.5929     9.4671     3.0511 
H     5.2660     9.8133     3.5318 
C     2.3355     8.9596     6.0059 
H     1.9423     8.2381     6.7219 
H     1.6029     9.0750     5.2024 
H     2.4189     9.9263     6.5092 
C     5.3181     8.8125     6.5906 
H     6.3022     8.4272     6.3178 
H     5.0430     8.3705     7.5504 
H     5.4113     9.8907     6.7407 
Si    4.1578     5.4860     6.2143 
C     2.9498     5.8164     7.6096 
H     3.1426     6.7713     8.1015 
H     3.0344     5.0296     8.3630 
H     1.9207     5.8241     7.2426 
C     5.9090     5.5025     6.9045 
H     6.6535     5.7142     6.1335 
H     6.1481     4.5295     7.3395 
H     6.0282     6.2532     7.6859 
C     3.8121     3.7562     5.5563 
H     2.8444     3.7050     5.0512 
H     3.8051     3.0271     6.3698 
H     4.5727     3.4200     4.8450 
P     1.6683     7.5817     1.5874 
H     1.1322     8.4225     0.5854 
C     2.9867     6.7872     0.5701 
C     3.8547     7.2832    -0.3153 
H     4.5388     6.5540    -0.7532 
C     4.0326     8.6923    -0.8518 
C     3.9609     9.7512     0.2482 
H     2.9855     9.7865     0.7334 
H     4.1489    10.7387    -0.1791 
H     4.7142     9.5664     1.0154 
C     2.9695     8.9828    -1.9189 
H     1.9722     9.0247    -1.4798 
H     2.9700     8.2155    -2.6948 
H     3.1715     9.9484    -2.3878 
C     5.4181     8.7712    -1.5019 
H     5.5860     9.7647    -1.9207 
H     5.5153     8.0402    -2.3071 
H     6.2027     8.5764    -0.7670 
C     0.3567     6.2658     1.5933 
H     0.8666     5.3368     1.8815 
Si   -0.5094     5.9248    -0.0607 
Si   -0.8031     6.5967     3.0575 
C    -1.8969     7.1725    -0.2999 
H    -1.5069     8.1936    -0.2840 
H    -2.3575     7.0156    -1.2780 
H    -2.6832     7.1024     0.4524 
C     0.6042     6.0823    -1.5538 
H     0.9738     7.0980    -1.6890 
H     1.4581     5.4077    -1.4951 
H     0.0148     5.8237    -2.4379 
C    -1.1718     4.1719    -0.0447 
H    -1.8820     3.9810     0.7587 
H    -1.6683     3.9542    -0.9929 
H    -0.3378     3.4737     0.0601 
C    -2.3032     5.4705     3.0349 
H    -2.9300     5.5932     2.1518 
H    -2.0050     4.4219     3.0959 
H    -2.9162     5.6905     3.9124 
C    -1.3534     8.3889     3.0649 
H    -1.9875     8.5799     3.9335 
H    -0.4959     9.0631     3.1298 
H    -1.9223     8.6490     2.1713 
C     0.1136     6.2366     4.6547 
H     0.9014     6.9673     4.8358 
H    -0.5740     6.2769     5.5031 
H     0.5647     5.2411     4.6347 
O     2.8586     4.4255     0.2004 
O     3.6109     5.1499     2.1566 
C     3.1497     5.3342     0.9306 















 
