106

Al    4.1820     5.8861     3.2304 
C     5.9747     5.0579     2.8957 
H     6.0507     4.4126     3.7908 
Si    7.4731     6.1841     3.0759 
C     6.9918     7.7743     3.9428 
H     6.4132     7.5646     4.8440 
H     6.3800     8.3936     3.2826 
H     7.8695     8.3573     4.2304 
C     8.8369     5.3627     4.0803 
H     9.1165     4.3906     3.6723 
H     8.5549     5.2199     5.1243 
H     9.7265     5.9975     4.0677 
C     8.2580     6.6984     1.4439 
H     9.0510     7.4166     1.6695 
H     7.5531     7.1919     0.7744 
H     8.7145     5.8681     0.9038 
Si    6.1961     3.8459     1.4893 
C     4.9794     2.3813     1.5897 
H     3.9846     2.5592     1.1668 
H     4.8837     1.9898     2.6079 
H     5.3937     1.5676     0.9896 
C     6.0221     4.6075    -0.2174 
H     5.9527     3.8141    -0.9661 
H     6.8890     5.2219    -0.4646 
H     5.1320     5.2312    -0.3040 
C     7.8664     2.9783     1.5674 
H     7.9393     2.2493     0.7566 
H     7.9838     2.4394     2.5108 
H     8.7076     3.6650     1.4701 
C     3.5921     6.3936     5.0699 
H     2.5126     6.1702     4.9538 
Si    3.5043     8.2058     5.6103 
C     3.6424     9.4662     4.2273 
H     3.6029    10.4650     4.6709 
H     2.8141     9.3749     3.5235 
H     4.5733     9.3866     3.6672 
C     1.8286     8.4923     6.4120 
H     1.6567     7.8306     7.2627 
H     1.0284     8.3243     5.6894 
H     1.7464     9.5231     6.7643 
C     4.7901     8.7102     6.8977 
H     5.8088     8.7370     6.5102 
H     4.7823     8.0880     7.7933 
H     4.5383     9.7279     7.2088 
Si    4.1522     5.2811     6.4560 
C     3.1791     5.5304     8.0469 
H     3.2937     6.5314     8.4632 
H     3.5093     4.8145     8.8035 
H     2.1126     5.3654     7.8748 
C     5.9869     5.4319     6.8106 
H     6.5665     5.1354     5.9352 
H     6.2639     4.7662     7.6316 
H     6.2873     6.4437     7.0820 
C     3.8939     3.4352     6.0685 
H     2.8462     3.1743     5.8736 
H     4.1745     2.8611     6.9547 
H     4.5265     3.0656     5.2552 
P     1.6086     7.4397     1.8355 
H     1.2975     7.6600     0.4739 
C     3.3638     6.9586     1.7736 
C     4.3009     7.5366     1.0019 
H     5.3304     7.1960     1.1487 
C     4.2211     8.6077    -0.0847 
C     3.4603     9.8483     0.3934 
H     2.4108     9.6444     0.6020 
H     3.4991    10.6231    -0.3763 
H     3.9089    10.2474     1.3049 
C     3.5775     8.0439    -1.3582 
H     2.5406     7.7516    -1.1955 
H     4.1280     7.1700    -1.7138 
H     3.5933     8.7988    -2.1485 
C     5.6528     9.0306    -0.4286 
H     5.6512     9.8209    -1.1815 
H     6.2201     8.1855    -0.8265 
H     6.1730     9.4036     0.4576 
C     0.6104     5.8808     2.0412 
H     0.9824     5.4014     2.9540 
Si    0.7097     4.6175     0.6502 
Si   -1.1472     6.4177     2.5044 
C    -0.5043     5.0224    -0.7246 
H    -0.3255     6.0273    -1.1149 
H    -0.3603     4.3199    -1.5489 
H    -1.5475     4.9614    -0.4130 
C     2.3937     4.5616    -0.1716 
H     3.2145     4.4884     0.5385 
H     2.4470     3.7075    -0.8522 
H     2.5758     5.4692    -0.7498 
C     0.3412     2.8966     1.3168 
H    -0.6621     2.8216     1.7369 
H     0.4251     2.1571     0.5169 
H     1.0479     2.6173     2.1019 
C    -2.2959     4.9349     2.6244 
H    -2.4348     4.4208     1.6726 
H    -1.9252     4.2081     3.3507 
H    -3.2780     5.2705     2.9657 
C    -1.8348     7.6460     1.2660 
H    -2.8245     7.9747     1.5918 
H    -1.1979     8.5312     1.2049 
H    -1.9342     7.2281     0.2643 
C    -1.1156     7.2464     4.1837 
H    -0.5819     8.1963     4.1301 
H    -2.1318     7.4487     4.5293 
H    -0.6252     6.6227     4.9348 
O     3.1010     4.2062     3.2061 
H     3.4181     3.5264     2.5903 
H     3.0594     3.8016     4.0866 



















 
