105

Al   4.1520     5.8407     3.1028 
C    6.1468     5.9240     3.3036 
H    6.2335     5.8508     4.4015 
Si   7.2241     7.3984     2.8929 
C    6.3504     9.0693     2.8063 
H    5.8571     9.3395     3.7400 
H    5.6025     9.1049     2.0119 
H    7.0986     9.8380     2.5930 
C    8.5645     7.5785     4.2034 
H    9.1687     6.6728     4.2786 
H    8.1346     7.7734     5.1883 
H    9.2305     8.4102     3.9616 
C    8.1284     7.2772     1.2353 
H    8.7659     8.1613     1.1442 
H    7.4618     7.2735     0.3726 
H    8.7707     6.4005     1.1560 
Si   6.8651     4.3110     2.6815 
C    6.1158     2.8221     3.5569 
H    5.1073     2.6127     3.2017 
H    6.0688     2.9839     4.6376 
H    6.7351     1.9387     3.3832 
C    6.5329     4.1372     0.8368 
H    6.8652     3.1633     0.4700 
H    7.0414     4.9064     0.2526 
H    5.4586     4.2183     0.6466 
C    8.7168     4.1322     3.0095 
H    9.0669     3.1811     2.6000 
H    8.8965     4.1083     4.0877 
H    9.3358     4.9240     2.5894 
C    3.0056     6.4324     4.6745 
H    1.9983     6.5163     4.2312 
Si   3.3426     8.1239     5.3727 
C    3.0511     9.4440     4.0492 
H    3.4794    10.4003     4.3592 
H    1.9754     9.6035     3.9208 
H    3.4848     9.1845     3.0813 
C    2.1957     8.6228     6.7866 
H    2.4257     8.0754     7.7026 
H    1.1425     8.4523     6.5517 
H    2.3232     9.6876     6.9995 
C    5.0799     8.2754     6.0785 
H    5.8342     7.8093     5.4477 
H    5.1308     7.7990     7.0589 
H    5.3502     9.3264     6.2089 
Si   2.7576     5.0959     5.9561 
C    1.1825     5.3973     6.9637 
H    1.3545     6.0899     7.7881 
H    0.8147     4.4602     7.3887 
H    0.3820     5.8205     6.3511 
C    4.2018     5.0125     7.1580 
H    5.1591     5.0077     6.6304 
H    4.1442     4.1006     7.7566 
H    4.2031     5.8605     7.8457 
C    2.5716     3.3792     5.2043 
H    1.8635     3.3565     4.3725 
H    2.2197     2.6837     5.9708 
H    3.5223     3.0119     4.8172 
P    1.7265     7.0650     1.4316 
H    1.0867     7.5972     0.2996 
C    3.4736     6.8794     1.4333 
C    4.3199     7.3186     0.4967 
H    5.3688     7.0841     0.6797 
C    4.1041     8.1272    -0.7777 
C    3.3917     9.4481    -0.4591 
H    2.3800     9.3009    -0.0805 
H    3.3171    10.0574    -1.3626 
H    3.9480    10.0143     0.2902 
C    3.3126     7.3200    -1.8117 
H    2.3315     7.0243    -1.4395 
H    3.8509     6.4110    -2.0863 
H    3.1637     7.9136    -2.7164 
C    5.4773     8.4578    -1.3698 
H    5.3696     9.0404    -2.2864 
H    6.0265     7.5444    -1.6085 
H    6.0755     9.0379    -0.6634 
C    0.8533     5.5604     1.8157 
H    1.5094     5.0441     2.5330 
Si   0.7928     4.3426     0.3366 
Si  -0.8024     5.8296     2.7428 
C   -0.1214     5.0989    -1.1164 
H    0.3111     6.0437    -1.4503 
H   -0.0538     4.4055    -1.9584 
H   -1.1778     5.2665    -0.9101 
C    2.5209     3.8805    -0.1866 
H    3.1059     4.7421    -0.5101 
H    3.0574     3.4180     0.6437 
H    2.4712     3.1704    -1.0157 
C   -0.0921     2.7962     0.9054 
H   -1.1437     2.9623     1.1415 
H   -0.0437     2.0499     0.1092 
H    0.3980     2.3731     1.7851 
C   -2.2454     5.9230     1.5523 
H   -2.1035     6.7082     0.8066 
H   -2.4239     4.9837     1.0278 
H   -3.1494     6.1642     2.1162 
C   -0.7911     7.4391     3.7088 
H   -1.6899     7.4636     4.3303 
H    0.0681     7.5352     4.3765 
H   -0.8239     8.3191     3.0625 
C   -1.0199     4.4141     3.9388 
H   -0.1970     4.3785     4.6550 
H   -1.9442     4.5543     4.5041 
H   -1.0738     3.4469     3.4398 
H    3.6550     4.3596     2.6958 
H    1.4272     8.0325     2.3939 


















 
