107

Al    4.3995     6.7793     3.3805 
C     6.3636     6.6806     3.5883 
H     6.4548     6.5769     4.6808 
Si    7.1798     8.3155     3.1834 
C     6.5004     9.7438     4.2012 
H     6.8507     9.7110     5.2345 
H     5.4099     9.7623     4.1966 
H     6.8540    10.6845     3.7700 
C     9.0313     8.3205     3.5466 
H     9.6044     7.5791     2.9901 
H     9.1964     8.1369     4.6116 
H     9.4456     9.3056     3.3168 
C     6.8672     8.7354     1.3782 
H     7.4154     9.6309     1.0775 
H     5.7982     8.9314     1.2638 
H     7.1442     7.9223     0.7039 
Si    7.3356     5.1976     2.9881 
C     6.2956     3.6551     2.6917 
H     5.5419     3.8076     1.9155 
H     5.7815     3.3213     3.5944 
H     6.9491     2.8418     2.3644 
C     8.2843     5.4427     1.3712 
H     8.8918     6.3470     1.3485 
H     7.6376     5.4555     0.4925 
H     8.9588     4.5896     1.2559 
C     8.6108     4.7489     4.2968 
H     9.1866     3.8700     3.9981 
H     8.1295     4.5237     5.2516 
H     9.3097     5.5705     4.4648 
C     3.2609     6.1840     4.9324 
H     2.2384     6.4467     4.6134 
Si    3.5121     7.2792     6.4331 
C     2.8883     9.0246     6.1018 
H     3.2283     9.6929     6.8970 
H     1.7962     9.0632     6.0974 
H     3.2548     9.4111     5.1499 
C     2.5727     6.6909     7.9592 
H     3.0052     5.7849     8.3882 
H     1.5207     6.4939     7.7410 
H     2.6172     7.4707     8.7240 
C     5.3128     7.4122     6.9598 
H     5.8896     8.0216     6.2641 
H     5.7983     6.4377     7.0416 
H     5.3617     7.8939     7.9396 
Si    3.2373     4.3604     5.2945 
C     1.7903     3.7962     6.3675 
H     1.8537     4.1201     7.4047 
H     1.7422     2.7038     6.3571 
H     0.8446     4.1654     5.9589 
C     4.8294     3.8603     6.1629 
H     4.8160     4.2035     7.2005 
H     5.7070     4.2993     5.6830 
H     4.9546     2.7754     6.1733 
C     2.9922     3.3357     3.7230 
H     1.9211     3.2143     3.5324 
H     3.4061     2.3315     3.8463 
H     3.4440     3.7778     2.8354 
P     2.0863     6.9260     1.4883 
H     1.5267     7.3901     0.2860 
C     3.6965     6.2270     1.4878 
C     4.5548     6.1284     0.4694 
H     5.5724     5.8438     0.7382 
C     4.4057     6.4217    -1.0229 
C     4.1846     7.9272    -1.2295 
H     3.2584     8.2727    -0.7682 
H     4.1291     8.1489    -2.2978 
H     5.0069     8.5007    -0.8020 
C     3.2604     5.6339    -1.6615 
H     2.3109     5.8042    -1.1546 
H     3.4613     4.5624    -1.6390 
H     3.1426     5.9362    -2.7044 
C     5.7105     6.0290    -1.7216 
H     5.6363     6.2011    -2.7969 
H     5.9371     4.9727    -1.5596 
H     6.5465     6.6197    -1.3412 
C     0.8124     5.8442     2.1616 
H     1.2743     5.3714     3.0366 
Si    0.3471     4.3950     0.9956 
Si   -0.6855     6.8622     2.8006 
C    -0.5302     5.1066    -0.5041 
H     0.1067     5.7643    -1.0979 
H    -0.8485     4.2904    -1.1569 
H    -1.4218     5.6707    -0.2245 
C     1.8369     3.3855     0.4695 
H     2.7708     3.9425     0.4595 
H     1.9640     2.5438     1.1514 
H     1.6643     2.9860    -0.5333 
C    -0.7921     3.2059     1.8976 
H    -1.8469     3.4539     1.8009 
H    -0.6421     2.2099     1.4751 
H    -0.5520     3.1451     2.9619 
C    -2.3154     5.9424     2.7283 
H    -2.6106     5.6293     1.7275 
H    -2.3231     5.0696     3.3813 
H    -3.0783     6.6342     3.0955 
C    -0.8751     8.3949     1.7344 
H    -1.7657     8.9416     2.0519 
H    -0.0326     9.0854     1.7965 
H    -1.0147     8.1244     0.6846 
C    -0.4354     7.2864     4.6055 
H     0.4212     7.9288     4.8025 
H    -1.3277     7.7922     4.9825 
H    -0.3011     6.3733     5.1914 
C     2.4818     8.4793     2.4975 
O     3.7615     8.4182     2.9743 
H     2.3420     9.3180     1.8021 
H     1.7263     8.5716     3.2887 


















 
