62

C       -3.264956000      2.161924000     -1.445798000
C       -2.907577000      1.727289000      2.044771000
C       -2.049606000      0.624256000      1.417921000
C       -2.296315000      0.988661000     -1.286732000
B       -1.328247000      1.072949000      0.024035000
C       -3.037736000     -0.364117000     -1.262334000
C       -2.866469000     -0.670374000      1.236608000
C       -3.820555000     -0.553675000      0.042102000
H       -4.428572000     -1.462619000     -0.027646000
H       -3.752555000     -0.379177000     -2.095292000
H       -3.466428000     -0.833557000      2.141333000
C       -1.207758000     -1.963903000     -0.271368000
H       -0.913831000     -3.004446000     -0.437117000
C       -2.118540000     -1.582976000     -1.459429000
H       -1.502749000     -1.446207000     -2.353310000
H       -2.765872000     -2.446198000     -1.649320000
C       -2.000722000     -1.925988000      1.051535000
H       -2.665585000     -2.796468000      1.066778000
H       -1.314008000     -2.039064000      1.896420000
H       -4.517781000      0.272401000      0.190912000
H       -3.244791000      1.445000000      3.047502000
H       -2.344093000      2.658322000      2.125260000
H       -3.799924000      1.941634000      1.455710000
H       -3.979705000      2.228625000     -0.625630000
H       -2.721979000      3.109384000     -1.465765000
H       -3.841029000      2.083075000     -2.373937000
C       -0.003560000      0.147231000     -0.227014000
C        0.094741000     -1.171226000     -0.204112000
N        1.202392000      1.057288000     -0.246408000
C        2.157582000      0.752481000     -1.389016000
C        1.798836000      1.045100000      1.158308000
C        2.716682000     -0.174942000      1.345417000
H        3.189633000     -0.032761000      2.319994000
C        3.094583000     -0.422948000     -1.084571000
H        3.840530000     -0.419589000     -1.883128000
C        3.789401000     -0.206602000      0.259444000
H        4.381588000      0.710203000      0.260063000
H        4.482242000     -1.029432000      0.449213000
C        2.401049000     -1.785509000     -1.098096000
H        3.174918000     -2.551591000     -0.987904000
H        1.914595000     -1.953538000     -2.061720000
C        2.000573000     -1.532104000      1.378373000
H        1.226817000     -1.531524000      2.149092000
H        2.745890000     -2.280569000      1.667022000
C        1.378490000     -1.940500000      0.031899000
H        1.117507000     -2.998272000      0.099989000
C        2.969268000      1.962396000     -1.854951000
H        2.352633000      2.816880000     -2.120237000
H        3.506267000      1.662814000     -2.755066000
H        3.710683000      2.281717000     -1.125889000
C        2.484510000      2.348329000      1.553599000
H        1.764985000      3.160734000      1.633202000
H        3.283283000      2.647156000      0.877722000
H        2.922393000      2.206229000      2.541904000
H        1.482824000      0.467065000     -2.198552000
H       -1.675651000      0.979098000     -2.195622000
H       -1.260194000      0.399282000      2.151713000
H        0.924542000      0.935651000      1.799789000
C        0.464122000      2.399654000     -0.545173000
O       -0.631212000      2.418131000      0.221991000
H        1.143466000      3.227921000     -0.350361000
H        0.254932000      2.328235000     -1.622673000








































