85

C        5.143771000      8.588986000      8.788363000
C        4.268932000      7.573826000      8.636244000
H        3.491868000      7.517856000      9.404009000
Si       5.052308000      9.623294000     10.370312000
C        6.412167000      9.149860000     11.573613000
H        7.397548000      9.462091000     11.224648000
H        6.429962000      8.074459000     11.757070000
H        6.223451000      9.649060000     12.527631000
C        5.178257000     11.480430000     10.118433000
H        4.437417000     11.885611000      9.428171000
H        6.171349000     11.781541000      9.784744000
H        5.005390000     11.948704000     11.091412000
C        3.406547000      9.273515000     11.201943000
H        3.306542000      9.921838000     12.075367000
H        3.332048000      8.241063000     11.547755000
H        2.563646000      9.473063000     10.537133000
C        7.807124000      9.753352000      8.220313000
C        8.771668000      9.068604000      8.990698000
C        9.862024000      9.759842000      9.498738000
H       10.588227000      9.224058000     10.100738000
C       10.045366000     11.116774000      9.259908000
C        9.088762000     11.776816000      8.505771000
H        9.202326000     12.840040000      8.324136000
C        7.970485000     11.128735000      7.981556000
C        8.641688000      7.601831000      9.303020000
H        8.702515000      6.997939000      8.395194000
H        7.680637000      7.375092000      9.767768000
H        9.431245000      7.286972000      9.983597000
C       11.247283000     11.834972000      9.805099000
H       11.158353000     12.912109000      9.672157000
H       12.155736000     11.505707000      9.296689000
H       11.376018000     11.628851000     10.868389000
C        6.994829000     11.968938000      7.199715000
H        7.134137000     13.020445000      7.448781000
H        5.963001000     11.702182000      7.417704000
H        7.136595000     11.852741000      6.122963000
C        5.911655000      9.472292000      5.956187000
C        6.847944000      9.363840000      4.903778000
C        6.505139000      9.799372000      3.629327000
H        7.241576000      9.722801000      2.836471000
C        5.253774000     10.326224000      3.344626000
C        4.347887000     10.430690000      4.388740000
H        3.370435000     10.859354000      4.195148000
C        4.646153000     10.024216000      5.686939000
C        8.242106000      8.827794000      5.108434000
H        8.234334000      7.855301000      5.606820000
H        8.839102000      9.492715000      5.737019000
H        8.749286000      8.721292000      4.151071000
C        4.886488000     10.749930000      1.950492000
H        4.452130000      9.914216000      1.397172000
H        5.761642000     11.091919000      1.398444000
H        4.150703000     11.553552000      1.964040000
C        3.584553000     10.246960000      6.730414000
H        2.844612000     10.953097000      6.356172000
H        4.000971000     10.642502000      7.654676000
H        3.073466000      9.318053000      6.986421000
C        3.566378000      4.997129000      8.160653000
C        2.379404000      4.349733000      7.757954000
C        1.946095000      3.156440000      8.317018000
H        1.026458000      2.697497000      7.982547000
C        2.692332000      2.547358000      9.308595000
C        3.868581000      3.127164000      9.731573000
H        4.456709000      2.651402000     10.502590000
C        4.289520000      4.324594000      9.162832000
C        1.485551000      4.928743000      6.675064000
C        2.213963000      1.243443000      9.882769000
C        5.575407000      4.880776000      9.735403000
F        0.930261000      6.088417000      7.030847000
F        2.140627000      5.119125000      5.521337000
F        0.469247000      4.102543000      6.384578000
F        2.291833000      0.255230000      8.981303000
F        0.933933000      1.315663000     10.264349000
F        2.929441000      0.867690000     10.944942000
F        6.296725000      3.933467000     10.349564000
F        5.353526000      5.833789000     10.648164000
F        6.379050000      5.403864000      8.798822000
B        3.992074000      6.459444000      7.520401000
P        6.465676000      8.713127000      7.532790000
C        5.500099000      5.074175000      5.847826000
H        4.584913000      4.816890000      5.321645000
H        6.294712000      5.279679000      5.134023000
H        5.788361000      4.269022000      6.522991000
O        5.243663000      6.269820000      6.581444000
H        6.053592000      6.776959000      6.890052000
H        3.129404000      6.867290000      6.798381000




































 
