83

P        6.891172000      9.276693000      7.830396000
B        4.370986000      6.857030000      7.366116000
H        3.610083000      7.284095000      6.547926000
C        5.341051000      9.073749000      8.754935000
C        4.575627000      7.999977000      8.472629000
H        3.677668000      7.930246000      9.093859000
Si       4.771897000     10.236083000     10.135406000
C        5.866066000     10.173027000     11.660204000
H        6.837692000     10.640373000     11.496650000
H        6.023805000      9.149620000     12.005055000
H        5.365055000     10.720831000     12.462593000
C        4.690957000     12.030349000      9.585247000
H        3.985973000     12.191423000      8.768205000
H        5.666455000     12.417923000      9.289799000
H        4.344454000     12.625610000     10.434408000
C        3.045062000      9.731218000     10.669097000
H        2.682870000     10.449681000     11.408187000
H        3.024534000      8.743353000     11.132604000
H        2.344224000      9.728121000      9.831780000
C        7.804426000     10.741972000      8.443352000
C        8.645836000     10.475896000      9.545016000
C        9.433837000     11.492875000     10.070121000
H       10.062888000     11.278468000     10.927445000
C        9.450247000     12.766399000      9.517736000
C        8.647136000     13.003855000      8.411728000
H        8.649777000     13.990672000      7.961407000
C        7.821189000     12.024695000      7.865657000
C        8.745832000      9.105578000     10.168325000
H        9.245339000      8.412889000      9.486847000
H        7.770677000      8.674572000     10.394631000
H        9.317951000      9.154446000     11.094047000
C       10.291320000     13.858808000     10.115346000
H        9.740939000     14.378160000     10.903087000
H       10.570080000     14.597611000      9.364640000
H       11.201302000     13.456611000     10.560061000
C        6.973148000     12.409826000      6.683960000
H        6.992969000     13.490020000      6.546970000
H        5.937359000     12.103390000      6.820136000
H        7.326685000     11.943784000      5.762452000
C        6.504483000      9.444462000      6.045375000
C        7.569936000      9.077661000      5.186268000
C        7.327526000      8.854487000      3.836451000
H        8.157617000      8.585570000      3.191476000
C        6.053795000      8.978279000      3.292107000
C        5.036916000      9.408338000      4.129330000
H        4.047550000      9.571135000      3.714163000
C        5.233278000      9.668469000      5.485952000
C        8.986393000      8.969952000      5.689909000
H        9.089048000      8.218121000      6.477833000
H        9.318528000      9.912630000      6.131660000
H        9.663417000      8.716930000      4.875546000
C        5.792891000      8.669756000      1.844834000
H        5.509055000      7.622327000      1.720485000
H        6.679813000      8.846879000      1.236967000
H        4.978368000      9.278527000      1.453597000
C        4.060693000     10.244867000      6.234941000
H        3.521720000     10.928750000      5.577993000
H        4.367550000     10.787444000      7.122500000
H        3.365694000      9.467542000      6.556657000
C        3.774754000      5.478302000      8.027300000
C        2.392342000      5.213645000      7.990190000
C        1.831902000      4.066208000      8.533213000
H        0.766075000      3.899878000      8.475732000
C        2.641128000      3.124925000      9.140186000
C        4.000160000      3.346215000      9.225435000
H        4.634701000      2.619633000      9.713720000
C        4.545225000      4.505256000      8.687736000
C        1.421958000      6.177145000      7.332132000
C        2.040224000      1.894704000      9.759108000
C        6.042948000      4.631761000      8.843497000
F        1.550074000      7.427528000      7.792986000
F        1.561914000      6.216242000      6.003810000
F        0.148830000      5.825411000      7.563655000
F        0.909225000      1.531627000      9.147920000
F        1.741504000      2.089289000     11.050755000
F        2.878714000      0.854500000      9.707556000
F        6.502484000      3.917343000      9.873475000
F        6.449668000      5.889370000      9.037356000
F        6.705292000      4.180244000      7.754159000
C        6.712399000      6.465762000      6.288677000
O        5.500798000      6.346032000      6.359478000
H        7.207268000      6.032513000      5.417072000
H        7.284500000      6.973223000      7.069363000












