82

C        5.474282000      8.547466000      8.601500000
C        5.260384000      7.328347000      9.142188000
H        4.610723000      7.329735000     10.025224000
Si       4.857713000      9.992559000      9.660238000
C        5.862042000      9.930217000     11.242774000
H        6.914281000     10.131373000     11.023899000
H        5.798051000      8.946731000     11.713008000
H        5.518899000     10.677606000     11.961333000
C        5.054184000     11.729574000      8.976937000
H        4.488670000     11.935798000      8.068634000
H        6.099893000     11.985484000      8.804012000
H        4.675154000     12.405306000      9.749251000
C        3.038810000      9.725795000     10.037633000
H        2.684455000     10.497220000     10.725114000
H        2.851795000      8.756651000     10.501802000
H        2.437054000      9.785055000      9.128575000
C        7.820204000      9.943473000      7.615133000
C        8.777100000      9.627845000      8.604246000
C        9.708510000     10.587071000      8.983217000
H       10.429373000     10.338381000      9.754444000
C        9.746438000     11.845875000      8.399464000
C        8.802130000     12.137482000      7.426686000
H        8.800172000     13.122936000      6.973527000
C        7.833097000     11.220580000      7.026092000
C        8.835171000      8.279299000      9.275835000
H        9.036103000      7.486174000      8.552048000
H        7.898383000      8.026238000      9.776293000
H        9.629279000      8.264357000     10.020158000
C       10.789683000     12.851148000      8.797694000
H       10.459379000     13.867499000      8.586427000
H       11.716064000     12.680771000      8.244638000
H       11.022664000     12.776402000      9.859697000
C        6.832524000     11.685311000      6.000127000
H        6.853983000     12.772291000      5.934425000
H        5.819482000     11.380696000      6.254459000
H        7.047327000     11.281870000      5.008314000
C        5.925987000      8.856503000      5.557479000
C        6.823292000      8.670190000      4.485991000
C        6.352650000      8.734637000      3.178941000
H        7.056529000      8.601555000      2.364554000
C        5.015540000      8.961145000      2.890231000
C        4.146498000      9.143441000      3.957163000
H        3.098511000      9.336239000      3.754581000
C        4.569655000      9.101329000      5.281102000
C        8.298610000      8.446952000      4.695242000
H        8.491651000      7.617639000      5.379593000
H        8.778363000      9.327368000      5.129847000
H        8.786130000      8.228833000      3.746875000
C        4.516907000      8.984219000      1.473058000
H        4.154334000      7.996932000      1.178291000
H        5.309046000      9.266528000      0.780378000
H        3.690720000      9.685568000      1.357919000
C        3.543632000      9.359467000      6.350005000
H        2.586730000      9.614526000      5.897177000
H        3.844613000     10.191297000      6.987352000
H        3.401624000      8.495887000      6.998317000
C        4.722540000      4.686479000      8.947021000
C        3.974292000      4.302975000      7.815888000
C        2.994763000      3.320551000      7.847369000
H        2.456784000      3.054979000      6.947807000
C        2.702869000      2.683900000      9.036565000
C        3.386116000      3.035620000     10.183430000
H        3.155663000      2.542153000     11.115847000
C        4.373186000      4.011418000     10.133326000
C        4.216867000      4.923808000      6.463084000
C        1.611955000      1.651246000      9.072907000
C        5.074404000      4.302999000     11.448794000
F        4.392242000      6.243816000      6.514600000
F        5.342204000      4.416414000      5.882726000
F        3.231165000      4.691628000      5.601134000
F        1.648214000      0.859836000      7.994756000
F        0.398797000      2.219856000      9.093198000
F        1.697761000      0.868583000     10.150424000
F        4.483009000      3.664509000     12.469969000
F        5.050727000      5.602817000     11.764581000
F        6.347680000      3.902398000     11.447735000
B        5.875908000      5.853726000      8.979582000
H        6.600022000      5.698722000      9.921237000
P        6.653591000      8.589601000      7.214534000
O        6.871338000      5.732556000      7.759473000
H        7.035511000      6.697176000      7.384373000
H        6.629014000      5.139788000      7.035484000




















