61
SiC30PNH16O4Cl8
Cl       7.647822000      1.639340000     18.589639000
Cl       2.391715000      7.678886000     13.661214000
Cl       1.415840000      1.781632000     18.281050000
Cl       5.509807000      2.733592000     11.481702000
P        4.580911000      5.854298000     17.763706000
Cl       2.684613000      7.276213000     10.535577000
Cl       4.247860000      4.795461000      9.445807000
Cl       5.949346000     -0.106739000     20.598650000
Cl       2.827525000     -0.040148000     20.438890000
Si       4.707532000      4.208811000     15.896959000
O        3.675686000      5.426372000     15.202531000
O        3.427370000      3.285711000     16.591854000
O        5.883657000      3.232933000     16.720458000
O        4.919925000      3.484446000     14.351690000
N        6.328851000      5.435201000     15.515202000
C        3.890570000      2.465247000     17.538718000
C        4.436513000      4.271897000     13.382051000
C        5.604875000      5.762898000     19.257859000
C        5.288725000      2.433089000     17.613896000
C        3.734574000      5.380840000     13.865616000
C        5.929730000      1.648641000     18.549337000
C        7.331317000      4.904867000     14.803476000
H        7.177915000      3.888975000     14.465403000
C        6.803158000      5.049107000     19.203598000
H        7.092470000      4.535862000     18.293973000
C        3.771081000      0.904790000     19.358101000
C        3.205459000      6.315547000     13.002133000
C        6.431355000      6.688915000     15.985139000
C        5.160628000      0.874866000     19.430071000
C        5.282764000      7.238637000     16.785678000
H        4.492824000      7.564314000     16.103415000
H        5.609304000      8.076767000     17.399059000
C        4.052521000      5.022200000     11.137764000
C        7.613293000      4.969050000     20.326853000
H        8.531964000      4.399175000     20.281468000
C        8.485761000      5.607638000     14.523651000
H        9.268861000      5.140365000     13.944903000
C        4.608644000      4.088940000     12.025592000
C        7.570926000      7.443246000     15.745095000
H        7.631709000      8.446487000     16.143033000
C        8.606171000      6.901442000     15.004377000
H        9.498654000      7.481498000     14.809141000
C        3.126744000      1.708343000     18.405494000
C        2.936611000      6.364282000     18.294623000
C        5.224222000      6.386675000     20.445608000
H        4.286693000      6.926446000     20.499259000
C        3.357059000      6.126980000     11.621455000
C        7.232291000      5.593642000     21.506178000
H        7.860274000      5.520400000     22.384521000
C        2.127417000      5.383812000     18.867680000
H        2.493767000      4.369310000     18.973089000
C        6.038589000      6.300743000     21.564742000
H        5.735824000      6.780133000     22.486455000
C        2.452225000      7.660937000     18.146968000
H        3.066301000      8.432615000     17.700478000
C        0.848156000      5.700716000     19.293886000
H        0.224709000      4.930820000     19.728784000
C        0.367593000      6.995206000     19.144172000
H       -0.635080000      7.240738000     19.468968000
C        1.168016000      7.972988000     18.570979000
H        0.792863000      8.980579000     18.449447000
