67
SiC31PNH20O5Cl8
Cl       7.723943000      0.010564000     16.719679000
Cl       2.602613000      7.688986000     14.922830000
Cl       1.546559000      0.280614000     15.885954000
Cl       6.038183000      4.332729000     10.936661000
P        5.843421000      6.258988000     18.833646000
Cl       3.120026000      8.789244000     12.002461000
Cl       4.835186000      7.100654000     10.004844000
Cl       5.972649000     -2.573194000     17.215390000
Cl       2.875315000     -2.435079000     16.801945000
Si       4.898892000      3.595396000     15.477278000
O        3.888310000      4.989951000     15.341815000
O        3.603527000      2.461637000     15.494831000
O        6.040963000      2.357574000     15.846843000
O        5.249974000      3.670996000     13.786206000
N        6.597519000      4.890379000     15.708511000
C        4.032252000      1.256844000     15.888813000
C        4.801167000      4.809538000     13.254262000
C        7.381551000      7.161560000     19.220325000
C        5.414959000      1.195167000     16.085663000
C        4.027603000      5.566332000     14.141178000
C        6.020974000      0.027091000     16.494271000
C        7.648203000      4.400267000     15.022418000
H        7.527713000      3.403183000     14.630694000
C        8.567537000      6.434881000     19.288819000
H        8.542621000      5.356168000     19.183645000
C        3.849889000     -1.046926000     16.525529000
C        3.518412000      6.791952000     13.773051000
C        6.689520000      6.141191000     16.206541000
C        5.227707000     -1.108411000     16.712134000
C        5.598375000      6.729526000     17.045222000
H        4.623761000      6.364377000     16.731544000
H        5.613917000      7.816496000     16.954102000
C        4.527966000      6.515854000     11.590874000
C        9.780106000      7.084525000     19.483996000
H       10.696541000      6.511317000     19.535144000
C        8.809289000      5.107939000     14.802280000
H        9.609233000      4.650696000     14.238757000
C        5.061661000      5.278315000     11.982522000
C        7.837532000      6.907123000     16.008130000
H        7.873678000      7.902854000     16.429101000
C        8.905113000      6.396246000     15.300918000
H        9.794479000      6.992199000     15.142933000
C        3.242440000      0.148173000     16.113418000
C        4.563385000      7.267753000     19.653447000
C        7.420511000      8.548839000     19.364944000
H        6.500839000      9.121687000     19.325075000
C        3.764007000      7.268931000     12.477896000
C        9.811329000      8.464208000     19.619750000
H       10.754155000      8.971838000     19.776984000
C        4.620508000      7.370350000     21.045713000
H        5.431678000      6.896392000     21.587379000
C        8.629903000      9.195984000     19.563634000
H        8.652891000     10.272129000     19.676809000
C        3.512150000      7.879424000     18.973986000
H        3.436875000      7.819393000     17.895119000
C        3.655787000      8.080352000     21.740156000
H        3.716351000      8.156523000     22.817938000
C        2.609851000      8.687719000     21.054894000
H        1.852794000      9.238398000     21.597485000
C        2.539476000      8.583606000     19.675019000
H        1.728203000      9.053644000     19.134537000
O        4.637026000      3.774048000     17.380685000
H        5.360652000      4.126732000     17.932739000
C        3.357935000      4.098296000     17.959222000
H        3.141486000      5.158855000     17.836146000
H        2.621591000      3.506854000     17.424299000
H        3.384668000      3.827124000     19.011914000
