64
SiC30PNH18O5Cl8
Cl       7.760393000      0.024400000     16.574634000
Cl       2.511033000      7.680634000     14.907484000
Cl       1.580250000      0.293553000     15.761110000
Cl       5.998600000      4.368248000     10.930762000
P        5.711794000      6.363032000     18.805574000
Cl       2.964788000      8.751681000     11.970506000
Cl       4.707419000      7.087950000      9.976684000
Cl       6.027821000     -2.595496000     16.928715000
Cl       2.930386000     -2.457422000     16.521273000
Si       4.925409000      3.645808000     15.486019000
O        3.891990000      5.027758000     15.358208000
O        3.620142000      2.518132000     15.517837000
O        6.059797000      2.404668000     15.845994000
O        5.270915000      3.725883000     13.796661000
N        6.588760000      4.947152000     15.738090000
C        4.056723000      1.292507000     15.835784000
C        4.783189000      4.846130000     13.259204000
C        7.310910000      7.122594000     19.237201000
C        5.439887000      1.227945000     16.023714000
C        3.999635000      5.591869000     14.146830000
C        6.056022000      0.042311000     16.359928000
C        7.660647000      4.451326000     15.087296000
H        7.554318000      3.449317000     14.705161000
C        8.425774000      6.292903000     19.326200000
H        8.307934000      5.221028000     19.213945000
C        3.893155000     -1.047041000     16.329664000
C        3.446883000      6.795027000     13.765542000
C        6.663222000      6.208679000     16.215152000
C        5.271574000     -1.109309000     16.512527000
C        5.552171000      6.826112000     17.007507000
H        4.580081000      6.477965000     16.667974000
H        5.596031000      7.911431000     16.908484000
C        4.437462000      6.517648000     11.574433000
C        9.686398000      6.832001000     19.550614000
H       10.547194000      6.179707000     19.617388000
C        8.826660000      5.156836000     14.890574000
H        9.642135000      4.691662000     14.356636000
C        5.012070000      5.302591000     11.976854000
C        7.817946000      6.970470000     16.039310000
H        7.840906000      7.972403000     16.445654000
C        8.907698000      6.451544000     15.374068000
H        9.801140000      7.046238000     15.235775000
C        3.275805000      0.165483000     15.989223000
C        4.489438000      7.465489000     19.585175000
C        7.468493000      8.500617000     19.389460000
H        6.604149000      9.152577000     19.332593000
C        3.661946000      7.259774000     12.460510000
C        9.836373000      8.203010000     19.694700000
H       10.816766000      8.624491000     19.875095000
C        4.571858000      7.661435000     20.966023000
H        5.381063000      7.208356000     21.527792000
C        8.726002000      9.037038000     19.617555000
H        8.841930000     10.106481000     19.736878000
C        3.441538000      8.051734000     18.878921000
H        3.347431000      7.915012000     17.808937000
C        3.633812000      8.440040000     21.622341000
H        3.712784000      8.589198000     22.691263000
C        2.591811000      9.023687000     20.911015000
H        1.856601000      9.629030000     21.424597000
C        2.497146000      8.826158000     19.542815000
H        1.688298000      9.276723000     18.982550000
O        4.611352000      3.791780000     17.404861000
H        5.124612000      4.349445000     18.033171000
H        3.664716000      3.910652000     17.568462000
