63
SiC30PNH18O4Cl8
Cl       6.929530000      2.407692000     19.066326000
Cl       3.108765000      8.281286000     13.078033000
Cl       0.829859000      3.242545000     18.051902000
Cl       5.438086000      2.759251000     11.343706000
P        5.706078000      6.283929000     18.200557000
Cl       3.488013000      7.648969000     10.003312000
Cl       4.660553000      4.881121000      9.134278000
Cl       4.864292000      1.764925000     21.371797000
Cl       1.805407000      2.151065000     20.847234000
Si       4.638514000      4.565925000     15.632321000
O        3.919670000      5.938298000     14.809698000
O        3.155940000      3.871628000     16.226231000
O        5.558419000      3.381038000     16.561675000
O        4.826792000      3.757569000     14.125830000
N        6.532031000      5.485678000     15.272349000
C        3.416939000      3.276623000     17.386213000
C        4.542278000      4.563485000     13.096643000
C        6.822342000      7.024310000     19.435891000
C        4.786624000      3.025570000     17.592757000
C        4.024512000      5.805520000     13.486278000
C        5.231879000      2.567290000     18.816640000
C        7.406557000      4.828156000     14.507066000
H        7.063081000      3.878558000     14.118130000
C        8.000027000      6.362469000     19.767611000
H        8.223817000      5.397825000     19.324752000
C        2.946137000      2.480998000     19.603438000
C        3.708286000      6.760964000     12.543162000
C        6.885982000      6.665031000     15.809623000
C        4.304555000      2.295005000     19.833264000
C        5.925044000      7.367580000     16.737122000
H        4.958084000      7.520056000     16.257461000
H        6.349129000      8.317963000     17.055061000
C        4.415609000      5.236953000     10.798098000
C        8.883269000      6.926724000     20.681234000
H        9.794576000      6.405181000     20.942140000
C        8.667769000      5.321858000     14.222135000
H        9.332703000      4.754642000     13.587273000
C        4.753000000      4.276888000     11.764099000
C        8.139011000      7.212365000     15.574294000
H        8.397348000      8.159464000     16.027466000
C        9.037951000      6.539092000     14.762813000
H       10.014187000      6.960995000     14.562917000
C        2.495037000      2.976622000     18.370940000
C        4.113192000      6.222567000     19.030649000
C        6.529274000      8.253573000     20.027742000
H        5.602117000      8.764135000     19.789271000
C        3.896138000      6.468399000     11.184721000
C        8.589399000      8.150446000     21.261317000
H        9.274579000      8.588374000     21.975365000
C        4.094765000      5.771268000     20.348427000
H        5.018357000      5.534894000     20.864179000
C        7.410848000      8.814877000     20.935515000
H        7.179369000      9.766062000     21.396393000
C        2.926877000      6.512805000     18.358928000
H        2.938959000      6.799495000     17.313221000
C        2.877269000      5.593394000     20.990228000
H        2.855086000      5.198625000     21.997259000
C        1.696240000      5.901477000     20.332082000
H        0.747733000      5.750479000     20.830570000
C        1.721742000      6.373554000     19.024370000
H        0.797852000      6.590879000     18.506366000
H        4.713414000      5.470022000     16.885821000
H        6.365318000      5.063444000     18.030468000
