87

C        2.467765000      4.238163000      2.580462000
C        2.376949000      2.912357000      2.152679000
C        1.221896000      2.463513000      1.523902000
C        0.205307000      3.361047000      1.229387000
C        0.348892000      4.704371000      1.548927000
C        1.474217000      5.146843000      2.233351000
C        4.361132000      3.025805000      3.471886000
H        1.118958000      1.418881000      1.255684000
H       -0.692567000      3.015649000      0.733033000
H       -0.426299000      5.410402000      1.281380000
H        1.559263000      6.194704000      2.477429000
H        4.213962000      2.608186000      4.466699000
H        5.442110000      3.066672000      3.329095000
C        3.712273000      4.443521000      3.429601000
H        3.453263000      4.738619000      4.442856000
C        3.644316000      2.143804000      2.413483000
H        3.421900000      1.160306000      2.834374000
P        4.942870000      5.588161000      2.640285000
B        4.474537000      1.865017000      1.028123000
C        4.429844000      7.364479000      2.586130000
C        3.378940000      8.011421000      3.262263000
C        5.213369000      8.131010000      1.683150000
C        3.118099000      9.357630000      2.991315000
C        4.926286000      9.469134000      1.470680000
C        3.867234000     10.106094000      2.105937000
H        2.295958000      9.831683000      3.517541000
H        5.543751000     10.031848000      0.779080000
C        6.453841000      5.530483000      3.710145000
C        7.605792000      4.903453000      3.189388000
C        6.519087000      6.085298000      5.003054000
C        8.764286000      4.840996000      3.958309000
C        7.697937000      5.995736000      5.734312000
C        8.833199000      5.375286000      5.234984000
H        9.640041000      4.356341000      3.541477000
H        7.726087000      6.426974000      6.729062000
C        5.362374000      6.794221000      5.646276000
H        4.446435000      6.212240000      5.578389000
H        5.567410000      6.972829000      6.700454000
H        5.178911000      7.756779000      5.166777000
C        7.666116000      4.270099000      1.822642000
H        8.694830000      4.009524000      1.577622000
H        7.079653000      3.349604000      1.781166000
H        7.290694000      4.936896000      1.047435000
C       10.082431000      5.261899000      6.060910000
H       10.966259000      5.175043000      5.430120000
H       10.203977000      6.127055000      6.712119000
H       10.039108000      4.373985000      6.695443000
C        6.385116000      7.553157000      0.932040000
H        6.849905000      8.320009000      0.315410000
H        7.145108000      7.160926000      1.610797000
H        6.071817000      6.735698000      0.280544000
C        2.496875000      7.430326000      4.342856000
H        2.524834000      6.353431000      4.422202000
H        2.785160000      7.848222000      5.309458000
H        1.460011000      7.719687000      4.167620000
C        3.557711000     11.549057000      1.827756000
H        4.448168000     12.168088000      1.945081000
H        3.204973000     11.675877000      0.802456000
H        2.787197000     11.924958000      2.499040000
C        3.513623000      1.168375000     -0.090868000
C        2.747264000      1.841051000     -1.034083000
C        3.309846000     -0.205501000     -0.056440000
C        1.871404000      1.207088000     -1.900691000
C        2.441596000     -0.878895000     -0.898185000
C        1.717675000     -0.164500000     -1.835357000
C        5.878324000      1.016399000      1.196459000
C        6.393921000      0.533314000      2.394557000
C        6.638530000      0.671532000      0.082462000
C        7.586128000     -0.168168000      2.495156000
C        7.833615000     -0.024252000      0.133510000
C        8.319934000     -0.441511000      1.357875000
F        2.787994000      3.176488000     -1.138238000
F        3.947692000     -0.956764000      0.851625000
F        2.293595000     -2.196045000     -0.812381000
F        0.880156000     -0.786702000     -2.653514000
F        1.163583000      1.908872000     -2.779867000
F        5.740691000      0.691096000      3.550314000
F        8.022099000     -0.590387000      3.676652000
F        9.461420000     -1.109444000      1.436591000
F        8.506516000     -0.303860000     -0.977348000
F        6.213455000      0.986363000     -1.151482000
C        5.555941000      3.635644000     -0.717244000
H        5.103279000      3.086917000     -1.534066000
H        5.433997000      4.705304000     -0.876254000
H        6.609198000      3.376408000     -0.623082000
O        4.857782000      3.307604000      0.489697000
H        4.906689000      4.079422000      1.134129000


















 
