84

C        2.649328000      4.353771000      2.338853000
C        2.465208000      3.305299000      1.439029000
C        1.328957000      3.290096000      0.639027000
C        0.400813000      4.318163000      0.747388000
C        0.589638000      5.355011000      1.654816000
C        1.718112000      5.375220000      2.464061000
C        4.333089000      2.686641000      2.780404000
H        1.165321000      2.479165000     -0.060221000
H       -0.485118000      4.306413000      0.125432000
H       -0.148457000      6.141541000      1.739716000
H        1.860350000      6.176742000      3.179455000
H        4.003907000      2.034762000      3.590677000
H        5.416549000      2.563457000      2.698692000
C        3.920082000      4.145458000      3.138126000
H        3.735151000      4.278249000      4.202222000
C        3.607555000      2.329921000      1.459470000
H        3.249046000      1.301490000      1.481682000
P        5.206678000      5.380357000      2.654915000
B        4.582264000      2.570589000      0.164056000
C        4.426220000      7.021714000      2.567273000
C        4.224624000      7.720162000      3.773921000
C        4.007294000      7.583773000      1.346414000
C        3.641946000      8.982228000      3.724080000
C        3.437105000      8.850207000      1.359807000
C        3.254077000      9.572429000      2.530847000
H        3.479578000      9.513329000      4.655061000
H        3.113563000      9.278525000      0.418240000
C        6.681799000      5.540436000      3.702036000
C        6.943111000      4.782325000      4.859735000
C        7.616073000      6.507068000      3.268715000
C        8.130375000      5.006984000      5.547366000
C        8.783801000      6.684153000      4.000490000
C        9.065902000      5.945137000      5.138068000
H        8.329060000      4.421286000      6.437305000
H        9.498640000      7.424314000      3.659415000
C        7.427404000      7.410958000      2.075305000
H        6.808463000      8.272472000      2.335148000
H        8.397283000      7.778353000      1.745820000
H        6.970390000      6.912577000      1.224198000
C        6.015131000      3.754074000      5.452902000
H        5.108386000      4.210093000      5.854483000
H        5.723266000      2.988803000      4.740357000
H        6.511872000      3.253874000      6.281283000
C       10.356799000      6.128721000      5.881531000
H       11.129631000      5.484359000      5.456950000
H       10.709224000      7.157111000      5.811654000
H       10.248021000      5.867251000      6.933275000
C        4.105649000      6.870559000      0.031171000
H        5.134772000      6.623142000     -0.237224000
H        3.544054000      5.936853000      0.047339000
H        3.703893000      7.493366000     -0.764891000
C        4.575635000      7.189382000      5.141111000
H        4.346937000      6.130130000      5.249361000
H        5.636230000      7.318981000      5.363145000
H        4.003219000      7.725006000      5.896174000
C        2.659139000     10.950360000      2.500143000
H        3.417358000     11.683489000      2.216922000
H        1.853889000     11.012835000      1.768641000
H        2.267020000     11.234763000      3.475362000
C        3.772026000      2.387613000     -1.234281000
C        3.469125000      3.367717000     -2.166004000
C        3.288428000      1.122032000     -1.539043000
C        2.728166000      3.119634000     -3.312201000
C        2.547809000      0.829389000     -2.669678000
C        2.262323000      1.844093000     -3.566089000
C        5.947637000      1.677517000      0.117159000
C        6.246079000      0.589843000      0.920702000
C        6.912984000      1.986936000     -0.834193000
C        7.420793000     -0.138793000      0.812203000
C        8.098340000      1.290541000     -0.976730000
C        8.354122000      0.216584000     -0.141694000
F        3.877389000      4.630977000     -2.006150000
F        3.529494000      0.104053000     -0.699519000
F        2.108927000     -0.403935000     -2.903014000
F        1.552292000      1.593197000     -4.659487000
F        2.460893000      4.100056000     -4.171179000
F        5.389229000      0.175084000      1.866175000
F        7.656380000     -1.173918000      1.615255000
F        9.485496000     -0.467631000     -0.259082000
F        8.990828000      1.634168000     -1.900220000
F        6.708287000      3.004278000     -1.674297000
C        5.909098000      4.545175000      1.047332000
O        7.096690000      4.474213000      0.949549000
O        4.974608000      4.066186000      0.319964000











 
