84

 C                  4.50244900    6.00999200    0.74020600
 C                  4.10549700    4.95067200   -0.08484500
 C                  4.04460300    5.13819100   -1.46020800
 C                  4.37064700    6.38338600   -1.99891600
 C                  4.73969000    7.43257500   -1.16947100
 C                  4.80353300    7.25142700    0.21042900
 C                  4.46011500    4.03213400    2.09127600
 H                  3.73267000    4.33017500   -2.11385200
 H                  4.32610800    6.53245100   -3.06989400
 H                  4.98644100    8.39537200   -1.59762200
 H                  5.10902500    8.06544100    0.85807000
 H                  3.89706800    3.60668100    2.92193200
 H                  5.46203600    3.60976500    2.17621300
 C                  4.53049400    5.56429200    2.17784200
 H                  3.59509400    5.91303400    2.63382200
 C                  3.83312400    3.69186900    0.71686300
 H                  2.75279900    3.59182700    0.84262800
 P                  5.74061200    6.37117700    3.36411900
 B                  4.41160000    2.30777800    0.08989200
 C                  7.49897900    6.51223000    2.80737300
 C                  8.26994300    7.26092400    3.73436400
 C                  8.11755100    6.10497100    1.61582400
 C                  9.58766200    7.58082000    3.44232600
 C                  9.43743000    6.47284100    1.35561700
 C                 10.19161000    7.21453000    2.24589700
 H                 10.16107200    8.14033600    4.17367200
 H                  9.89170200    6.14174400    0.42727500
 C                  5.67170700    5.03457500    4.64522800
 C                  6.47994400    3.88156100    4.69767900
 C                  4.60342600    5.15509300    5.55781900
 C                  6.15654400    2.86482000    5.59437600
 C                  4.31941400    4.11174700    6.43301800
 C                  5.06863300    2.94430200    6.45169900
 H                  6.78129800    1.97706000    5.61933400
 H                  3.48582900    4.21673100    7.11911200
 C                  3.73334200    6.38681400    5.62756700
 H                  3.11201000    6.50472600    4.73768700
 H                  3.06790800    6.32589300    6.48730900
 H                  4.33543500    7.29168200    5.71342600
 C                  7.70418900    3.66299600    3.84529100
 H                  8.10665700    2.66667300    4.02338100
 H                  7.49462300    3.75217900    2.78078900
 H                  8.48540200    4.39080300    4.06995800
 C                  4.70561200    1.80089700    7.35659500
 H                  5.56562700    1.16055800    7.54892100
 H                  4.31877600    2.16027300    8.31017500
 H                  3.92993400    1.18230500    6.89870900
 C                  7.47555500    5.21275700    0.58581900
 H                  8.22589400    4.52185200    0.19303000
 H                  6.66617100    4.63752700    1.02052500
 H                  7.06778900    5.78699900   -0.25125900
 C                  7.72338800    7.71228600    5.06600800
 H                  6.86187200    8.37029900    4.93753900
 H                  7.39170000    6.86798400    5.67471300
 H                  8.49023200    8.24858700    5.62212900
 C                 11.60680300    7.61500400    1.93970000
 H                 12.25254800    7.46670900    2.80574200
 H                 12.00930300    7.03859800    1.10772600
 H                 11.65794700    8.67223400    1.67083300
 C                  4.78999200    1.29558200    1.31296100
 C                  3.73726100    0.80045900    2.06978000
 C                  6.04322300    1.02918300    1.83224100
 C                  3.90424100    0.11189700    3.25867300
 C                  6.26694300    0.34805700    3.01492800
 C                  5.18290900   -0.11004700    3.73951100
 C                  3.59529800    1.55861300   -1.09046700
 C                  4.17546700    0.44819200   -1.69285200
 C                  2.33622400    1.89353700   -1.56408400
 C                  3.56779200   -0.29126700   -2.68950300
 C                  1.68734100    1.17864300   -2.55987800
 C                  2.30711200    0.08032700   -3.12535500
 F                  2.48114700    1.03541900    1.67556000
 F                  7.15916400    1.47834100    1.19634900
 F                  7.50003700    0.14417600    3.46479500
 F                  5.36868700   -0.74858600    4.88563400
 F                  2.85731300   -0.31544300    3.95196400
 F                  5.39374700    0.05037200   -1.30186200
 F                  4.17152800   -1.34336400   -3.22958800
 F                  1.70237100   -0.60982400   -4.08055700
 F                  0.48093400    1.54250800   -2.97847500
 F                  1.67603500    2.94851100   -1.07728900
 O                  5.80840600    2.72185800   -0.64555200
 H                  5.81000400    3.67722400   -0.84636000
 H                  6.61024500    2.47619700   -0.15414200

