86

C        2.525749000      4.356720000      2.231261000
C        2.303742000      3.002441000      1.976805000
C        1.142971000      2.612267000      1.322410000
C        0.273520000      3.576352000      0.829500000
C        0.568010000      4.925154000      0.972484000
C        1.692331000      5.324499000      1.687111000
C        4.255380000      3.055532000      3.362131000
H        0.934034000      1.559747000      1.172752000
H       -0.623135000      3.273970000      0.303785000
H       -0.085976000      5.671886000      0.542358000
H        1.901157000      6.381152000      1.794672000
H        4.109014000      2.746201000      4.396085000
H        5.330695000      3.009853000      3.178146000
C        3.696284000      4.502698000      3.192977000
H        3.338134000      4.865261000      4.155179000
C        3.464759000      2.150134000      2.382636000
H        3.143788000      1.228067000      2.866160000
P        4.976628000      5.682614000      2.658567000
B        4.370874000      1.811617000      1.039278000
C        4.449755000      7.421607000      2.615273000
C        3.378457000      7.985688000      3.344482000
C        5.202040000      8.228698000      1.731891000
C        3.096664000      9.335177000      3.154906000
C        4.870925000      9.569920000      1.592811000
C        3.818946000     10.143268000      2.288812000
H        2.275416000      9.770978000      3.711610000
H        5.454693000     10.180304000      0.913764000
C        6.548704000      5.471082000      3.548186000
C        7.646697000      4.878977000      2.887768000
C        6.679896000      5.886913000      4.886540000
C        8.845526000      4.749888000      3.582724000
C        7.898772000      5.732476000      5.529408000
C        8.999012000      5.172922000      4.893698000
H        9.685303000      4.289668000      3.075557000
H        7.987040000      6.051304000      6.561612000
C        5.539370000      6.471418000      5.667908000
H        4.709690000      5.764770000      5.727950000
H        5.850979000      6.692075000      6.686676000
H        5.177625000      7.396474000      5.218365000
C        7.598444000      4.345325000      1.483524000
H        8.565768000      3.927275000      1.212575000
H        6.852428000      3.556714000      1.391236000
H        7.343177000      5.106497000      0.746167000
C       10.316401000      5.043864000      5.601026000
H       10.904437000      4.223546000      5.192306000
H       10.898249000      5.960985000      5.485415000
H       10.175288000      4.874313000      6.667838000
C        6.355230000      7.703596000      0.917440000
H        6.822457000      8.519498000      0.370716000
H        7.120570000      7.250445000      1.550786000
H        6.027765000      6.957440000      0.188530000
C        2.492097000      7.263261000      4.332006000
H        1.946425000      6.435676000      3.884743000
H        3.047825000      6.878164000      5.183536000
H        1.753105000      7.960146000      4.721602000
C        3.453570000     11.585481000      2.090604000
H        4.332544000     12.185925000      1.859525000
H        2.755817000     11.685648000      1.256383000
H        2.972408000     11.996973000      2.976846000
C        3.486759000      0.956997000     -0.048549000
C        2.705569000      1.501128000     -1.061273000
C        3.370269000     -0.422797000      0.079322000
C        1.907341000      0.748445000     -1.908032000
C        2.584632000     -1.214240000     -0.741338000
C        1.848872000     -0.622727000     -1.751293000
C        5.784430000      1.024618000      1.406163000
C        6.110182000      0.449198000      2.627038000
C        6.790781000      0.928886000      0.455001000
C        7.333499000     -0.143224000      2.899472000
C        8.027517000      0.348146000      0.676183000
C        8.304129000     -0.192025000      1.917640000
F        2.652182000      2.826340000     -1.260041000
F        4.013730000     -1.066328000      1.062451000
F        2.522893000     -2.530291000     -0.563488000
F        1.086571000     -1.359990000     -2.548918000
F        1.182855000      1.335538000     -2.856485000
F        5.231060000      0.422976000      3.637884000
F        7.581519000     -0.668459000      4.096434000
F        9.482432000     -0.752702000      2.161881000
F        8.946502000      0.306866000     -0.284791000
F        6.594312000      1.425235000     -0.776507000
C        5.040828000      3.670990000     -0.618411000
O        4.767651000      3.191024000      0.564006000
O        5.363217000      4.827958000     -0.776861000
H        4.974442000      2.969269000     -1.454677000
H        5.238632000      5.359019000      1.328039000







































