82

B   -0.4786    -1.7884     4.0510 
B   -0.3669     5.4620     5.2200 
C    0.5612     0.9062     1.9564 
H    0.2334     0.4476     1.0191 
H    1.2050     1.7494     1.6983 
C    1.3413    -0.1226     2.7900 
H    2.3075    -0.2543     2.2981 
H    1.5708     0.3013     3.7735 
C    0.6742    -1.5013     2.9321 
H    1.4730    -2.2158     3.1436 
H    0.2806    -1.7955     1.9542 
C   -0.6580    -3.4031     4.2681 
C   -0.9825    -4.2051     3.1773 
C   -1.1039    -5.5813     3.2346 
C   -0.8940    -6.2283     4.4393 
C   -0.5812    -5.4810     5.5571 
C   -0.4773    -4.1009     5.4552 
C   -0.2366    -0.9386     5.4347 
C    1.0092    -1.0300     6.0471 
C    1.3614    -0.3519     7.1974 
C    0.4343     0.4781     7.8072 
C   -0.8160     0.6124     7.2396 
C   -1.1197    -0.0878     6.0799 
C   -0.2771     2.6097     4.1298 
H   -1.1626     3.0516     4.6047 
H    0.1887     1.9808     4.8936 
C    0.6915     3.6907     3.6526 
H    0.2928     4.1699     2.7561 
H    1.6382     3.2288     3.3667 
C    0.9455     4.7505     4.7365 
H    1.5892     5.5342     4.3173 
H    1.4999     4.3132     5.5654 
C   -0.6803     5.6359     6.7479 
C   -0.3702     4.6480     7.6796 
C   -0.6473     4.7712     9.0293 
C   -1.2381     5.9349     9.4915 
C   -1.5573     6.9506     8.6043 
C   -1.2882     6.7794     7.2610 
C   -1.4065     5.9852     4.1569 
C   -1.0257     6.4850     2.9130 
C   -1.9318     6.9144     1.9613 
C   -3.2850     6.8378     2.2352 
C   -3.7158     6.3368     3.4502 
C   -2.7810     5.9286     4.3814 
C   -1.7298     2.6750     1.6685 
C   -1.1055     3.1833     0.5300 
H   -0.0895     2.8967     0.2908 
C   -1.7795     4.0567    -0.3143 
H   -1.2822     4.4442    -1.1939 
C   -3.0854     4.4319    -0.0329 
H   -3.6098     5.1122    -0.6916 
C   -3.7159     3.9356     1.1012 
H   -4.7348     4.2267     1.3273 
C   -3.0427     3.0634     1.9439 
H   -3.5469     2.6658     2.8189 
F   -1.2277    -3.6461     1.9830 
F   -1.4236    -6.2838     2.1530 
F   -1.0022    -7.5464     4.5198 
F   -0.3910    -6.0875     6.7232 
F   -0.1983    -3.4673     6.5990 
F    1.9372    -1.8410     5.5276 
F    2.5674    -0.4962     7.7332 
F    0.7471     1.1267     8.9176 
F   -1.7194     1.4141     7.7973 
F   -2.3602     0.1293     5.5991 
F    0.1803     3.4993     7.2846 
F   -0.3562     3.7987     9.8772 
F   -1.4996     6.0773    10.7773 
F   -2.1196     8.0639     9.0520 
F   -1.6230     7.7795     6.4456 
F    0.2641     6.6010     2.5970 
F   -1.5215     7.3796     0.7899 
F   -4.1671     7.2040     1.3219 
F   -5.0153     6.2197     3.6897 
F   -3.2569     5.4296     5.5223 
P   -0.9444     1.4953     2.8191 
O   -1.8547    -1.3321     3.4188 
H   -1.8409    -0.3313     3.2771 
C   -3.1246    -1.8441     3.8461 
H   -3.0830    -2.1095     4.8997 
H   -3.8713    -1.0693     3.6895 
H   -3.3516    -2.7167     3.2387 




















 
