79

B   -0.7539    -1.7504     4.2566 
B   -0.4142     5.2242     5.2454 
C   -0.0345     0.5833     1.8431 
H   -0.5219     0.0578     1.0175 
H    0.5015     1.4402     1.4260 
C    0.9162    -0.3541     2.5925 
H    1.7601    -0.5322     1.9223 
H    1.3315     0.1680     3.4590 
C    0.2751    -1.6833     2.9950 
H    1.0822    -2.3853     3.2094 
H   -0.2443    -2.0953     2.1226 
C   -1.0900    -3.3243     4.5540 
C   -1.8246    -4.0575     3.6284 
C   -2.1436    -5.3942     3.7852 
C   -1.7086    -6.0671     4.9127 
C   -0.9619    -5.3886     5.8553 
C   -0.6678    -4.0475     5.6594 
C   -0.2384    -0.9448     5.5966 
C    1.1085    -0.7941     5.9056 
C    1.5781    -0.0929     7.0035 
C    0.6759     0.4814     7.8803 
C   -0.6767     0.3314     7.6423 
C   -1.1020    -0.3761     6.5276 
C   -0.6111     2.2414     4.2203 
H   -1.4572     2.7163     4.7303 
H   -0.1424     1.5668     4.9388 
C    0.3856     3.2733     3.6827 
H   -0.0386     3.7777     2.8122 
H    1.2826     2.7525     3.3410 
C    0.7611     4.3017     4.7554 
H    1.5048     4.9885     4.3286 
H    1.2574     3.8030     5.5874 
C   -0.6028     5.5123     6.7732 
C   -0.4508     4.5108     7.7278 
C   -0.5974     4.7323     9.0847 
C   -0.8918     6.0122     9.5258 
C   -1.0518     7.0436     8.6128 
C   -0.9208     6.7755     7.2647 
C   -1.4043     5.8700     4.2066 
C   -1.0180     6.2269     2.9151 
C   -1.8884     6.7646     1.9857 
C   -3.2113     6.9629     2.3382 
C   -3.6458     6.6285     3.6085 
C   -2.7468     6.0960     4.5120 
C   -2.3127     2.4282     1.8937 
C   -3.3982     3.0855     2.4792 
H   -3.6831     2.8695     3.5001 
C   -4.1452     3.9791     1.7292 
H   -5.0015     4.4676     2.1776 
C   -3.8072     4.2408     0.4067 
H   -4.3929     4.9437    -0.1717 
C   -2.7222     3.6005    -0.1720 
H   -2.4559     3.8010    -1.2009 
C   -1.9786     2.6900     0.5661 
H   -1.1451     2.1875     0.0942 
F   -2.2595    -3.4794     2.5008 
F   -2.8538    -6.0398     2.8644 
F   -1.9995    -7.3507     5.0818 
F   -0.5309    -6.0260     6.9399 
F    0.0718    -3.4755     6.6194 
F    2.0511    -1.3658     5.1445 
F    2.8828     0.0222     7.2304 
F    1.1044     1.1584     8.9355 
F   -1.5563     0.8692     8.4800 
F   -2.4277    -0.4825     6.3915 
F   -0.2033     3.2571     7.3420 
F   -0.4665     3.7472     9.9553 
F   -1.0264     6.2504    10.8157 
F   -1.3333     8.2645     9.0414 
F   -1.0940     7.7927     6.4206 
F    0.2508     6.0892     2.5282 
F   -1.4763     7.0774     0.7664 
F   -4.0682     7.4343     1.4514 
F   -4.9232     6.7807     3.9260 
F   -3.2317     5.7627     5.7058 
P   -1.3432     1.2707     2.8740 
C   -2.5680    -0.0154     3.5912 
O   -3.6843     0.4180     3.6788 
O   -2.1473    -1.1740     3.8842 









 
