80

B    0.2698    -2.5633     4.0997 
B   -0.7484     6.5032     4.7347 
C    1.1721     1.1841     5.0117 
H    1.6466     1.5667     4.1056 
H    1.7099     1.6277     5.8553 
C    1.2661    -0.3413     5.0900 
H    2.3147    -0.6384     5.1745 
H    0.7880    -0.6628     6.0179 
C    0.6313    -1.0527     3.8929 
H    1.3120    -0.9999     3.0324 
H   -0.2714    -0.5366     3.5567 
C   -0.6658    -3.3245     3.0828 
C   -0.8505    -2.9148     1.7680 
C   -1.6804    -3.5796     0.8821 
C   -2.3775    -4.6936     1.3133 
C   -2.2339    -5.1328     2.6185 
C   -1.3844    -4.4512     3.4697 
C    1.1349    -3.4608     5.0905 
C    2.0656    -4.3066     4.5024 
C    2.9162    -5.1249     5.2231 
C    2.8447    -5.1154     6.6048 
C    1.9335    -4.2863     7.2341 
C    1.1071    -3.4747     6.4749 
C   -0.2827     3.5718     5.6025 
H   -1.2778     4.0331     5.5836 
H    0.0574     3.6300     6.6402 
C    0.6720     4.3194     4.6755 
H    0.3998     4.1185     3.6380 
H    1.6861     3.9376     4.8092 
C    0.6530     5.8327     4.9354 
H    1.3169     6.3274     4.2117 
H    1.0667     6.0529     5.9196 
C   -1.2750     7.5929     5.7375 
C   -1.1122     7.4716     7.1141 
C   -1.5583     8.4257     8.0104 
C   -2.1813     9.5651     7.5305 
C   -2.3640     9.7311     6.1673 
C   -1.9240     8.7457     5.3042 
C   -1.6522     6.0991     3.5118 
C   -1.1302     5.7931     2.2577 
C   -1.9174     5.4179     1.1856 
C   -3.2866     5.3188     1.3567 
C   -3.8521     5.5988     2.5878 
C   -3.0353     5.9887     3.6308 
C   -1.2585     1.9489     3.5154 
C   -0.5341     1.8473     2.3279 
H    0.5334     1.6703     2.3514 
C   -1.1689     1.9439     1.0962 
H   -0.5900     1.8531     0.1862 
C   -2.5396     2.1493     1.0297 
H   -3.0338     2.2208     0.0694 
C   -3.2729     2.2665     2.2033 
H   -4.3434     2.4292     2.1614 
C   -2.6369     2.1622     3.4324 
H   -3.2222     2.2278     4.3442 
F   -0.2052    -1.8493     1.2910 
F   -1.8153    -3.1599    -0.3700 
F   -3.1814    -5.3362     0.4823 
F   -2.9119    -6.1946     3.0352 
F   -1.2959    -4.9049     4.7196 
F    2.1734    -4.3329     3.1682 
F    3.7934    -5.9075     4.6090 
F    3.6458    -5.8896     7.3199 
F    1.8599    -4.2736     8.5592 
F    0.2490    -2.7056     7.1532 
F   -0.5492     6.3790     7.6322 
F   -1.4010     8.2599     9.3160 
F   -2.6050    10.4908     8.3714 
F   -2.9584    10.8235     5.7103 
F   -2.1262     8.9479     4.0024 
F    0.1803     5.8921     2.0328 
F   -1.3787     5.1408     0.0073 
F   -4.0515     4.9238     0.3543 
F   -5.1603     5.4608     2.7579 
F   -3.6288     6.2292     4.8015 
P   -0.5691     1.7825     5.2126 
C   -1.9584    -1.1123     6.1551 
O   -1.6806    -1.9001     5.2888 
H   -2.9184    -0.5754     6.1418 
H   -1.2822    -0.9066     6.9951 










