81

B     0.2923    -1.3531     4.4757 
B     0.3122     5.7001     4.9561 
C     1.1647     0.9007     1.8224 
H     0.8088     0.3679     0.9368 
H     1.8667     1.6648     1.4748 
C     1.8753    -0.0576     2.7936 
H     2.8432    -0.2631     2.3325 
H     2.0958     0.4703     3.7284 
C     1.1224    -1.3709     3.0694 
H     1.8439    -2.1879     3.0928 
H     0.4668    -1.5849     2.2215 
C    -0.8670    -2.5219     4.5125 
C    -1.8355    -2.5168     3.5134 
C    -2.8542    -3.4456     3.4102 
C    -2.9475    -4.4499     4.3564 
C    -2.0303    -4.4876     5.3880 
C    -1.0278    -3.5301     5.4530 
C     1.3865    -1.4083     5.7023 
C     2.2189    -2.5159     5.8242 
C     3.2336    -2.6254     6.7546 
C     3.4651    -1.5770     7.6295 
C     2.6745    -0.4497     7.5488 
C     1.6646    -0.3888     6.5981 
C     0.2469     2.8391     3.8801 
H    -0.6627     3.3728     4.1739 
H     0.4870     2.1597     4.6971 
C     1.4039     3.7886     3.5590 
H     1.2221     4.3057     2.6150 
H     2.3233     3.2119     3.4330 
C     1.5823     4.8147     4.6852 
H     2.3800     5.5150     4.4031 
H     1.9250     4.3152     5.5903 
C    -0.1521     6.0199     6.4157 
C    -0.1123     5.0649     7.4298 
C    -0.5174     5.3325     8.7254 
C    -0.9679     6.6025     9.0438 
C    -1.0248     7.5850     8.0674 
C    -0.6334     7.2752     6.7806 
C    -0.5189     6.2656     3.7412 
C     0.0705     6.6653     2.5444 
C    -0.6557     7.1183     1.4592 
C    -2.0355     7.1709     1.5463 
C    -2.6703     6.7771     2.7105 
C    -1.9099     6.3452     3.7813 
C    -0.7877     2.9977     1.1730 
C     0.0500     3.5046     0.1809 
H     1.0890     3.2057     0.1272 
C    -0.4483     4.3958    -0.7585 
H     0.2046     4.7875    -1.5268 
C    -1.7803     4.7840    -0.7119 
H    -2.1660     5.4802    -1.4452 
C    -2.6166     4.2901     0.2810 
H    -3.6538     4.5978     0.3221 
C    -2.1236     3.4000     1.2232 
H    -2.7811     3.0088     1.9928 
F    -1.8359    -1.5484     2.5762 
F    -3.7430    -3.3805     2.4223 
F    -3.9150    -5.3542     4.2815 
F    -2.1261    -5.4315     6.3183 
F    -0.2225    -3.6196     6.5163 
F     2.0437    -3.5652     5.0104 
F     3.9887    -3.7171     6.8210 
F     4.4375    -1.6555     8.5294 
F     2.8890     0.5714     8.3753 
F     0.9549     0.7578     6.6002 
F     0.2779     3.8207     7.1674 
F    -0.4834     4.3936     9.6568 
F    -1.3485     6.8780    10.2764 
F    -1.4554     8.7989     8.3776 
F    -0.7119     8.2478     5.8714 
F     1.3981     6.6522     2.4100 
F    -0.0507     7.4878     0.3385 
F    -2.7484     7.5686     0.5067 
F    -3.9937     6.7954     2.7752 
F    -2.5734     5.9653     4.8702 
P    -0.2326     1.8531     2.4497 
C    -1.4179     0.3051     5.2615 
O    -0.4204    -0.0130     4.4776 
O    -2.0302     1.3394     5.1412 
H    -1.6626    -0.4387     6.0353 
H    -1.3526     1.0747     2.6982 














