90

P    19.5349     5.2624    20.0201 
C    19.6105     4.7162    21.7317 
C    20.9070     4.5032    22.2314 
C    21.0063     4.0924    23.5600 
H    21.9865     3.8840    23.9700 
C    19.8974     3.9147    24.3749 
C    18.6311     4.1367    23.8342 
H    17.7574     4.0127    24.4631 
C    18.4560     4.5334    22.5200 
C    17.0421     4.7190    22.0297 
H    16.7644     5.7732    21.9772 
H    16.3538     4.2223    22.7115 
H    16.8845     4.2993    21.0357 
C    18.1480     6.3898    19.7363 
C    18.1678     7.6120    20.4398 
C    17.1239     8.5100    20.2361 
H    17.1412     9.4476    20.7802 
C    16.0705     8.2437    19.3787 
C    16.0527     7.0131    18.7342 
H    15.2145     6.7679    18.0919 
C    17.0605     6.0727    18.8948 
C    19.2242     8.0415    21.4286 
H    18.7565     8.6371    22.2114 
H    19.9729     8.6600    20.9325 
H    19.7459     7.2226    21.9191 
C    14.9803     9.2492    19.1482 
H    14.8933     9.9374    19.9876 
H    14.0186     8.7601    18.9959 
H    15.1958     9.8391    18.2547 
C    16.8791     4.7612    18.1719 
H    15.8479     4.6799    17.8337 
H    17.0947     3.8970    18.7993 
H    17.5243     4.6872    17.2958 
C    19.7216     3.9111    18.8176 
C    20.0658     4.2531    17.4936 
C    20.3696     3.2361    16.5959 
H    20.6485     3.5094    15.5845 
C    20.3343     1.8991    16.9530 
C    19.9282     1.5845    18.2435 
H    19.8539     0.5412    18.5290 
C    19.6145     2.5500    19.1908 
C    20.1121     5.6574    16.9509 
H    21.1237     6.0604    17.0095 
H    19.4625     6.3550    17.4747 
H    19.8180     5.6401    15.9018 
C    20.7449     0.8265    15.9891 
H    20.2451    -0.1161    16.2087 
H    21.8220     0.6575    16.0612 
H    20.5239     1.1130    14.9616 
C    19.1422     2.0358    20.5278 
H    18.2108     2.5050    20.8422 
H    19.8729     2.1950    21.3210 
H    18.9623     0.9654    20.4497 
C    20.0550     3.5071    25.7888 
C    19.1755     2.5967    26.3742 
H    18.3815     2.1632    25.7786 
C    19.3303     2.2161    27.6983 
H    18.6473     1.4990    28.1349 
C    20.3632     2.7457    28.4595 
H    20.4835     2.4498    29.4934 
C    21.2417     3.6560    27.8879 
H    22.0447     4.0790    28.4773 
C    21.0905     4.0320    26.5623 
H    21.7647     4.7591    26.1261 
B    22.2780     4.7345    21.3562 
C    23.5088     5.1412    22.3581 
C    24.7316     4.5044    22.4964 
C    23.3421     6.2622    23.1659 
C    25.7198     4.9332    23.3729 
C    24.2975     6.7234    24.0510 
C    25.5022     6.0490    24.1551 
C    22.6193     3.4438    20.3959 
C    22.9255     3.5114    19.0434 
C    22.6418     2.1604    20.9249 
C    23.2197     2.3981    18.2709 
C    22.9165     1.0219    20.1909 
C    23.2106     1.1438    18.8455 
F    22.4166     1.9787    22.2327 
F    22.9063    -0.1798    20.7605 
F    23.4609     0.0650    18.1102 
F    23.4879     2.5249    16.9722 
F    22.9454     4.6793    18.3877 
F    22.1960     6.9545    23.1186 
F    24.0751     7.7985    24.8021 
F    26.4354     6.4730    24.9973 
F    26.8742     4.2804    23.4621 
F    25.0383     3.4194    21.7773 
O    21.0103     7.3368    19.1539 
O    22.1216     5.9743    20.4978 
C    21.0927     6.3550    19.8355 












 
