53

 C                 -3.22354100   -0.57291900    0.07979400
 C                 -1.45138600    1.11012900    0.85367400
 C                 -2.35156700    1.58504400    1.97920000
 C                 -3.81706200    1.38322900    1.60952100
 C                 -4.09164200   -0.07339300    1.23148100
 H                 -0.39521100    1.15534200    1.12047500
 H                 -3.34835600    0.07836500   -0.79030000
 H                 -2.11768500    1.01932400    2.88686000
 H                 -2.12953900    2.63197400    2.18891200
 H                 -4.45263700    1.68428100    2.44342700
 H                 -4.06941000    2.03268000    0.76476200
 H                 -3.92620200   -0.71821200    2.10281500
 H                 -5.13714200   -0.18278300    0.96002200
 H                 -1.61054400    1.69866300   -0.05084300
 N                 -1.78654200   -0.29471300    0.51281000
 H                 -1.61518300   -0.91622100    1.31359000
 B                 -3.14163600   -2.18716900   -0.37453600
 C                 -2.76883600   -3.01543600    1.00736400
 C                 -3.80363700   -3.42844900    1.88511600
 C                 -1.44612200   -3.30300900    1.41992400
 C                 -3.51895000   -4.03617400    3.10355800
 C                 -1.18759400   -3.91702700    2.65022000
 C                 -2.21291700   -4.27564300    3.50024900
 H                 -4.33834100   -4.33328900    3.74832900
 H                 -0.16020000   -4.12752000    2.92751500
 H                 -2.00246100   -4.75090200    4.44998900
 C                 -4.28993200   -2.89697000   -1.30344300
 C                 -4.00175700   -4.21815200   -1.73331100
 C                 -5.50475500   -2.34651700   -1.76194800
 C                 -4.89184700   -4.93330800   -2.52919400
 C                 -6.37711300   -3.08313400   -2.56587500
 C                 -6.08801100   -4.37793700   -2.94626300
 H                 -4.63273300   -5.94162200   -2.83174500
 H                 -7.30132600   -2.62183700   -2.89590200
 H                 -6.77384700   -4.93921900   -3.56819800
 C                 -5.99369100   -0.96366100   -1.39875500
 H                 -6.74855400   -0.63513000   -2.11317100
 H                 -6.47224100   -0.96044200   -0.41550800
 H                 -5.20717200   -0.21480600   -1.39383800
 C                 -2.72296400   -4.92754200   -1.35834200
 H                 -1.85408400   -4.28525600   -1.49975400
 H                 -2.72396800   -5.23659300   -0.31154400
 H                 -2.59288300   -5.81851900   -1.97237400
 C                 -5.26170700   -3.27413300    1.52741600
 H                 -5.88550800   -3.38265600    2.41502500
 H                 -5.47684200   -2.31260200    1.06818500
 H                 -5.56304300   -4.03198200    0.80076300
 C                 -0.21394400   -3.02250200    0.57777100
 H                  0.30517600   -2.10751700    0.89030100
 H                  0.50904500   -3.82867100    0.70378900
 H                 -0.44078000   -2.93585000   -0.48040400
 H                 -1.19786000   -0.66388400   -0.23714400
 H                 -2.15839200   -2.14559200   -1.10995600