55

C       -3.411765000     -0.556926000      0.171035000
C       -1.566512000      1.127936000      0.593850000
C       -2.313609000      1.677952000      1.797860000
C       -3.817214000      1.471212000      1.638662000
C       -4.145978000     -0.001650000      1.383900000
H       -0.483300000      1.186254000      0.713761000
H       -3.642496000      0.048960000     -0.708874000
H       -1.963461000      1.167801000      2.700964000
H       -2.065844000      2.733845000      1.912192000
H       -4.333890000      1.825139000      2.531691000
H       -4.177012000      2.075812000      0.799790000
H       -3.889256000     -0.598918000      2.265318000
H       -5.219573000     -0.114519000      1.245192000
H       -1.846570000      1.658479000     -0.318041000
N       -1.934369000     -0.288471000      0.385401000
H       -1.675861000     -0.834830000      1.215314000
B       -3.284556000     -2.198997000     -0.213980000
C       -3.153051000     -2.971438000      1.250106000
C       -4.347687000     -3.242244000      1.964489000
C       -1.942576000     -3.309936000      1.899372000
C       -4.319307000     -3.770648000      3.251300000
C       -1.946788000     -3.840478000      3.193994000
C       -3.122096000     -4.064291000      3.880260000
H       -5.256058000     -3.959005000      3.763426000
H       -1.000504000     -4.095064000      3.658114000
H       -3.108258000     -4.476604000      4.881197000
C       -4.325004000     -2.917437000     -1.255123000
C       -4.096400000     -4.283191000     -1.540838000
C       -5.404315000     -2.302362000     -1.921358000
C       -4.924220000     -4.983228000     -2.415782000
C       -6.221251000     -3.027255000     -2.788949000
C       -5.994093000     -4.367331000     -3.037484000
H       -4.719739000     -6.030324000     -2.608128000
H       -7.048749000     -2.524769000     -3.276665000
H       -6.636585000     -4.920480000     -3.710996000
C       -5.759346000     -0.841153000     -1.765379000
H       -6.728695000     -0.640370000     -2.220374000
H       -5.820681000     -0.529328000     -0.723574000
H       -5.031381000     -0.197130000     -2.263729000
C       -2.964386000     -5.065437000     -0.917095000
H       -2.042278000     -4.489163000     -0.900654000
H       -3.195216000     -5.347204000      0.112362000
H       -2.786563000     -5.979814000     -1.483191000
C       -5.720062000     -3.018633000      1.371805000
H       -6.470878000     -2.992558000      2.161903000
H       -5.793268000     -2.097792000      0.799797000
H       -5.978734000     -3.823872000      0.680627000
C       -0.560179000     -3.186429000      1.278995000
H       -0.130183000     -2.183186000      1.388396000
H        0.127804000     -3.853428000      1.797329000
H       -0.550667000     -3.431237000      0.222037000
C       -1.289140000     -0.961395000     -0.798194000
O       -1.948662000     -2.127209000     -0.965429000
H       -0.222527000     -1.090740000     -0.579187000
H       -1.406078000     -0.256054000     -1.634277000










































