54

 C                 -3.31654300   -0.57559000    0.18077700
 C                 -1.64507300    1.21269400    0.88238100
 C                 -2.51220500    1.59463800    2.06881700
 C                 -3.97814200    1.28116100    1.78541300
 C                 -4.16116300   -0.18585800    1.38883100
 H                 -0.58233900    1.34151600    1.08912500
 H                 -3.53947200    0.09336900   -0.65326500
 H                 -2.17906500    1.03465100    2.94867700
 H                 -2.36494000    2.65256100    2.28921800
 H                 -4.58122400    1.51380300    2.66426400
 H                 -4.33434300    1.92393200    0.97356600
 H                 -3.89909800   -0.83147800    2.23457800
 H                 -5.21258800   -0.37181900    1.18152500
 H                 -1.90344400    1.80253200    0.00190100
 N                 -1.88530300   -0.20496800    0.53171100
 H                 -1.60394800   -0.82270500    1.30243200
 B                 -3.09058100   -2.16802400   -0.39556600
 C                 -2.68200700   -3.00176200    0.98206900
 C                 -3.71435400   -3.41319200    1.85949600
 C                 -1.35330700   -3.25998700    1.40314500
 C                 -3.42907500   -3.99275100    3.09355400
 C                 -1.09994300   -3.83833400    2.65115100
 C                 -2.12464500   -4.19687200    3.50488500
 H                 -4.24932900   -4.29173200    3.73653400
 H                 -0.07286400   -4.02386700    2.94397000
 H                 -1.91056300   -4.64362900    4.46753800
 C                 -4.25402900   -2.89976500   -1.30360000
 C                 -4.08605300   -4.27799400   -1.58167400
 C                 -5.36820200   -2.26909600   -1.89933200
 C                 -5.02153300   -4.97878100   -2.34167000
 C                 -6.29159100   -2.99501500   -2.65093700
 C                 -6.13645400   -4.35184000   -2.86360000
 H                 -4.86315100   -6.03555600   -2.52456900
 H                 -7.14180000   -2.47923700   -3.08217600
 H                 -6.86210400   -4.90605200   -3.44548000
 C                 -5.63098300   -0.78394900   -1.80031200
 H                 -6.55536100   -0.53170400   -2.31854900
 H                 -5.73265000   -0.44151100   -0.77163000
 H                 -4.83036500   -0.20685800   -2.26626600
 C                 -2.90535300   -5.07981900   -1.08256900
 H                 -1.98202500   -4.50565700   -1.11689600
 H                 -3.04631700   -5.40125600   -0.04823300
 H                 -2.77900100   -5.97210600   -1.69607400
 C                 -5.17976300   -3.31858000    1.49850400
 H                 -5.79257600   -3.33487300    2.40050600
 H                 -5.42825100   -2.42970300    0.92723100
 H                 -5.47320500   -4.16737800    0.87508300
 C                 -0.12131900   -3.02180700    0.54747600
 H                  0.75574400   -3.41621000    1.05988200
 H                 -0.20566700   -3.50689500   -0.42195100
 H                  0.07977500   -1.97165900    0.32975600
 H                 -1.35788300   -0.52649800   -0.29705400
 O                 -1.89949500   -1.96596000   -1.29997300
 H                 -2.14879100   -2.14126000   -2.20857500