56

C       -3.177451000     -0.602673000      0.136791000
C       -1.945568000      1.233557000      1.374501000
C       -3.155941000      1.493598000      2.250590000
C       -4.437824000      1.110941000      1.518500000
C       -4.362457000     -0.344640000      1.063424000
H       -1.008062000      1.411416000      1.901095000
H       -3.211763000      0.105452000     -0.691131000
H       -3.070558000      0.906253000      3.170356000
H       -3.157082000      2.544951000      2.541175000
H       -5.298689000      1.261440000      2.171357000
H       -4.573156000      1.764556000      0.650304000
H       -4.275372000     -0.983580000      1.947256000
H       -5.281978000     -0.638557000      0.560234000
H       -1.963118000      1.863904000      0.483680000
N       -1.931233000     -0.166806000      0.879833000
H       -1.750974000     -0.838563000      1.631951000
B       -2.949527000     -2.167794000     -0.413484000
C       -2.488456000     -3.009661000      0.940065000
C       -3.470074000     -3.438294000      1.869761000
C       -1.136071000     -3.230829000      1.311246000
C       -3.106223000     -3.980822000      3.103234000
C       -0.809090000     -3.783663000      2.550956000
C       -1.783541000     -4.146669000      3.460388000
H       -3.889577000     -4.289080000      3.786551000
H        0.235106000     -3.937852000      2.796075000
H       -1.515756000     -4.567496000      4.421120000
C       -4.194773000     -2.825974000     -1.259419000
C       -4.283012000     -4.232691000     -1.369351000
C       -5.163244000     -2.075712000     -1.962097000
C       -5.384261000     -4.833856000     -1.974333000
C       -6.262149000     -2.703015000     -2.550373000
C       -6.403316000     -4.077451000     -2.523060000
H       -5.429685000     -5.915996000     -2.025266000
H       -7.000642000     -2.098142000     -3.064149000
H       -7.263911000     -4.553177000     -2.976052000
C       -5.034443000     -0.591424000     -2.238425000
H       -5.712218000     -0.313704000     -3.044818000
H       -5.277623000      0.045480000     -1.387216000
H       -4.024257000     -0.341591000     -2.565893000
C       -3.190598000     -5.167766000     -0.899137000
H       -2.202487000     -4.729384000     -1.029094000
H       -3.290969000     -5.437271000      0.154090000
H       -3.230930000     -6.088595000     -1.481669000
C       -4.962777000     -3.453524000      1.607438000
H       -5.504862000     -3.282450000      2.538968000
H       -5.303449000     -2.737306000      0.872106000
H       -5.256762000     -4.438018000      1.232861000
C        0.047049000     -2.952521000      0.406702000
H        0.965235000     -3.267651000      0.900181000
H       -0.034455000     -3.499488000     -0.531912000
H        0.169702000     -1.898921000      0.153347000
O       -1.841084000     -2.180052000     -1.517729000
C       -1.042296000     -1.297390000     -1.985171000
O       -0.716732000     -0.230486000     -1.474325000
H       -0.607085000     -1.591381000     -2.950089000
H       -1.185207000     -0.242979000      0.155324000

































