88

P    -2.2484     0.1794    -0.0207 
C    -2.1576     0.5456    -1.8360 
H    -2.6308    -0.3571    -2.2418 
H    -1.1325     0.5296    -2.2136 
C    -2.9421     1.7976    -2.2874 
H    -2.3987     2.6445    -1.8676 
B    -4.4699     1.9545    -1.6598 
C    -5.6183     2.3246    -2.7556 
C    -6.3182     3.5174    -2.8554 
C    -5.9098     1.3967    -3.7496 
C    -7.2073     3.7934    -3.8852 
C    -6.7922     1.6240    -4.7881 
C    -7.4429     2.8442    -4.8609 
C    -4.3668     2.9536    -0.3472 
C    -3.7544     4.1944    -0.5082 
C    -4.6275     2.6331     0.9749 
C    -3.3815     5.0208     0.5311 
C    -4.2789     3.4312     2.0556 
C    -3.6403     4.6311     1.8346 
C    -1.5161     1.4108     1.1262 
C    -1.8592     1.1696     2.4828 
C    -0.8042     2.5771     0.8113 
C    -1.5048     2.0898     3.4558 
C    -0.4963     3.4857     1.8273 
C    -0.8384     3.2721     3.1488 
H    -1.7832     1.8926     4.4852 
H     0.0365     4.3925     1.5578 
C    -1.3182    -1.3890     0.1481 
C     0.0804    -1.4614     0.2468 
C    -2.0757    -2.5776     0.1793 
C     0.6861    -2.7066     0.3986 
C    -1.4274    -3.7965     0.3251 
C    -0.0456    -3.8826     0.4466 
H     1.7671    -2.7536     0.4714 
H    -2.0173    -4.7066     0.3436 
F    -6.1721     4.4841    -1.9468 
F    -7.8404     4.9589    -3.9362 
F    -8.2928     3.0910    -5.8466 
F    -7.0190     0.6939    -5.7095 
F    -5.3150     0.1930    -3.7297 
F    -3.4611     4.6293    -1.7431 
F    -2.7529     6.1690     0.2995 
F    -3.2685     5.3981     2.8510 
F    -4.5405     3.0338     3.2972 
F    -5.2182     1.4677     1.3103 
C    -3.5796    -2.5814     0.0567 
H    -3.9106    -2.1384    -0.8860 
H    -3.9579    -3.6016     0.0940 
H    -4.0416    -2.0138     0.8678 
C     0.6249    -5.2145     0.6318 
H     0.2263    -5.9534    -0.0640 
H     1.7003    -5.1406     0.4772 
H     0.4556    -5.5920     1.6424 
C     0.9690    -0.2484     0.1883 
H     0.6673     0.4328    -0.6064 
H     0.9380     0.3145     1.1229 
H     1.9997    -0.5475     0.0044 
C    -0.2875     2.9510    -0.5544 
H    -0.4164     2.1783    -1.3005 
H    -0.7830     3.8563    -0.9167 
H     0.7790     3.1751    -0.4890 
C    -2.6199    -0.0559     2.9233 
H    -3.6048    -0.0950     2.4537 
H    -2.0949    -0.9775     2.6637 
H    -2.7609    -0.0383     4.0023 
C    -0.5038     4.2653     4.2246 
H     0.2540     3.8637     4.9002 
H    -0.1250     5.1936     3.7998 
H    -1.3873     4.4985     4.8200 
Si   -2.5390     2.1227    -4.1211 
C    -0.7230     2.6287    -4.1538 
H    -0.4190     2.8464    -5.1801 
H    -0.5594     3.5327    -3.5622 
H    -0.0536     1.8528    -3.7760 
C    -3.4883     3.5571    -4.8766 
H    -4.5016     3.2878    -5.1765 
H    -3.5499     4.4060    -4.1944 
H    -2.9577     3.8875    -5.7731 
C    -2.7099     0.6181    -5.2331 
H    -3.7424     0.4114    -5.5127 
H    -2.1452     0.7971    -6.1513 
H    -2.3020    -0.2818    -4.7677 
C    -6.2641     0.1841    -0.8376 
H    -6.8132     1.0698    -0.5267 
H    -6.7014    -0.2459    -1.7349 
H    -6.2583    -0.5471    -0.0331 
O    -4.9033     0.5292    -1.1320 
H    -4.2306     0.2345    -0.4220 





























 
