84

P    -2.3309     0.7575    -0.1896 
C    -1.8439     1.2320    -1.8830 
H    -2.0004     0.2664    -2.3715 
H    -0.7626     1.3858    -1.8795 
C    -2.6029     2.3660    -2.5915 
H    -2.0733     3.2900    -2.3511 
B    -4.1722     2.7650    -2.2460 
C    -5.3443     1.6659    -2.5675 
C    -6.6756     2.0516    -2.4349 
C    -5.1859     0.3801    -3.0449 
C    -7.7533     1.2407    -2.7348 
C    -6.2297    -0.4785    -3.3575 
C    -7.5294    -0.0448    -3.2010 
C    -4.2838     3.3658    -0.7094 
C    -3.5833     4.5270    -0.3937 
C    -4.9900     2.8366     0.3609 
C    -3.5306     5.0841     0.8711 
C    -4.9851     3.3669     1.6412 
C    -4.2345     4.4940     1.9046 
C    -1.9911     1.7878     1.2629 
C    -2.6505     1.4076     2.4538 
C    -1.1258     2.8945     1.2618 
C    -2.4121     2.1334     3.6117 
C    -0.9241     3.5831     2.4546 
C    -1.5522     3.2242     3.6369 
H    -2.9340     1.8490     4.5181 
H    -0.2655     4.4439     2.4463 
C    -1.7418    -0.9278     0.1200 
C    -0.4042    -1.1444     0.4900 
C    -2.6288    -2.0150    -0.0141 
C     0.0220    -2.4440     0.7336 
C    -2.1492    -3.2928     0.2451 
C    -0.8331    -3.5307     0.6199 
H     1.0551    -2.6088     1.0179 
H    -2.8293    -4.1311     0.1466 
F    -6.9623     3.2733    -1.9743 
F    -9.0015     1.6715    -2.5763 
F    -8.5497    -0.8451    -3.4901 
F    -5.9840    -1.7116    -3.8019 
F    -3.9491    -0.1359    -3.2447 
F    -2.8784     5.1671    -1.3381 
F    -2.7848     6.1598     1.1157 
F    -4.1713     4.9929     3.1361 
F    -5.6455     2.7675     2.6322 
F    -5.6997     1.6958     0.2221 
C    -4.0721    -1.8684    -0.4206 
H    -4.6439    -1.2775     0.2981 
H    -4.1679    -1.3917    -1.3952 
H    -4.5400    -2.8480    -0.4876 
C    -0.3442    -4.9301     0.8587 
H    -1.1212    -5.5459     1.3103 
H    -0.0610    -5.3977    -0.0867 
H     0.5291    -4.9382     1.5092 
C     0.5934    -0.0272     0.6353 
H     0.5610     0.6523    -0.2166 
H     0.4091     0.5606     1.5365 
H     1.6026    -0.4300     0.6923 
C    -0.3952     3.3976     0.0480 
H     0.4695     2.7736    -0.1877 
H    -1.0367     3.4402    -0.8262 
H    -0.0293     4.4062     0.2311 
C    -3.6439     0.2784     2.5248 
H    -4.4868     0.4488     1.8515 
H    -3.1918    -0.6823     2.2732 
H    -4.0498     0.2065     3.5311 
C    -1.3587     4.0235     4.8916 
H    -1.4193     3.3900     5.7759 
H    -0.3969     4.5342     4.8909 
H    -2.1414     4.7810     4.9692 
Si   -2.3302     2.3457    -4.4735 
C    -0.9695     1.1236    -4.9276 
H    -0.7572     1.1817    -5.9973 
H    -0.0374     1.3298    -4.3962 
H    -1.2644     0.0943    -4.7097 
C    -1.7743     4.0805    -4.9258 
H    -2.5143     4.8086    -4.5856 
H    -0.8219     4.3278    -4.4516 
H    -1.6553     4.1963    -6.0048 
C    -3.8299     1.9439    -5.5261 
H    -4.6973     2.5357    -5.2304 
H    -3.5924     2.1917    -6.5639 
H    -4.1012     0.8887    -5.4933 
H    -3.7155     0.6350    -0.2534 
H    -4.4250     3.7110    -2.9654 




















