87

P    -1.8727    -0.0798    -0.4310 
C    -2.1522     0.5663    -2.1218 
H    -2.7399    -0.2354    -2.5804 
H    -1.1716     0.5359    -2.6098 
C    -2.8538     1.9300    -2.2879 
H    -2.2054     2.6651    -1.8161 
B    -4.3318     2.0675    -1.5237 
C    -5.5771     2.2128    -2.5909 
C    -6.3711     3.3293    -2.7964 
C    -5.8377     1.1552    -3.4530 
C    -7.3410     3.4052    -3.7864 
C    -6.7876     1.1829    -4.4559 
C    -7.5491     2.3273    -4.6250 
C    -4.2616     3.2939    -0.4143 
C    -3.6397     4.5045    -0.6923 
C    -4.7402     3.1953     0.8845 
C    -3.4722     5.5279     0.2212 
C    -4.5988     4.1955     1.8361 
C    -3.9583     5.3713     1.5068 
C    -1.6449     1.1635     0.8537 
C    -2.3000     0.8966     2.0804 
C    -0.9965     2.3914     0.6518 
C    -2.3283     1.8895     3.0455 
C    -1.0686     3.3549     1.6537 
C    -1.7376     3.1339     2.8452 
H    -2.8460     1.6949     3.9780 
H    -0.5855     4.3117     1.4847 
C    -0.7242    -1.4820    -0.4635 
C     0.6605    -1.3835    -0.2506 
C    -1.3158    -2.7411    -0.7158 
C     1.4268    -2.5421    -0.2731 
C    -0.4984    -3.8642    -0.7366 
C     0.8693    -3.7904    -0.5104 
H     2.4946    -2.4625    -0.1048 
H    -0.9489    -4.8298    -0.9361 
F    -6.2204     4.4309    -2.0533 
F    -8.0639     4.5084    -3.9433 
F    -8.4688     2.3842    -5.5783 
F    -6.9776     0.1350    -5.2512 
F    -5.1328     0.0138    -3.3335 
F    -3.1682     4.7468    -1.9286 
F    -2.8484     6.6540    -0.1179 
F    -3.8009     6.3337     2.4106 
F    -5.0604     4.0182     3.0736 
F    -5.3972     2.1058     1.3098 
C    -2.7925    -2.9452    -0.9578 
H    -3.1964    -2.2826    -1.7248 
H    -2.9714    -3.9674    -1.2836 
H    -3.3855    -2.7756    -0.0558 
C     1.7147    -5.0311    -0.5006 
H     1.3516    -5.7597    -1.2247 
H     2.7549    -4.8026    -0.7279 
H     1.6841    -5.5016     0.4845 
C     1.3635    -0.0743    -0.0250 
H     1.3535     0.5314    -0.9322 
H     0.9023     0.5064     0.7731 
H     2.4047    -0.2476     0.2397 
C    -0.1667     2.7553    -0.5517 
H    -0.2137     2.0310    -1.3586 
H    -0.4832     3.7213    -0.9490 
H     0.8796     2.8514    -0.2532 
C    -2.9797    -0.4126     2.3855 
H    -3.9230    -0.5094     1.8407 
H    -2.3510    -1.2690     2.1298 
H    -3.2012    -0.4714     3.4491 
C    -1.8205     4.1970     3.9012 
H    -1.2197     3.9197     4.7697 
H    -1.4619     5.1551     3.5284 
H    -2.8491     4.3238     4.2411 
Si   -2.6301     2.4116    -4.1228 
C    -0.8824     3.1041    -4.2443 
H    -0.6233     3.3296    -5.2808 
H    -0.7992     4.0300    -3.6700 
H    -0.1320     2.4051    -3.8652 
C    -3.8072     3.6917    -4.8254 
H    -4.7509     3.2377    -5.1327 
H    -4.0242     4.5068    -4.1365 
H    -3.3435     4.1195    -5.7183 
C    -2.7242     0.9108    -5.2534 
H    -3.7140     0.4520    -5.2563 
H    -2.5075     1.2327    -6.2751 
H    -1.9966     0.1389    -4.9951 
C    -5.5430     0.0824    -0.4867 
O    -4.4766     0.7874    -0.7506 
O    -5.4924    -0.9676     0.1061 
H    -6.4916     0.5090    -0.8456 
H    -3.0339    -0.7116    -0.0437 















