46

C   -2.9205    -3.1063    -1.9468 
C   -1.5807    -2.7823    -1.9550 
C   -3.7420    -2.6312    -0.9285 
C   -1.1332    -1.9809    -0.9119 
B    0.7168    -0.4685    -0.4661 
C   -0.1536     0.8309    -0.2668 
C    0.0277     1.6649     0.8265 
C   -1.1458     1.2028    -1.1625 
C   -0.7403     2.7951     1.0417 
C   -1.9271     2.3290    -0.9881 
C   -1.7236     3.1266     0.1253 
C    2.2713    -0.4675    -0.2273 
C    2.9487    -1.6118     0.1893 
C    3.0531     0.6690    -0.4118 
C    4.3144    -1.6294     0.4127 
C    4.4200     0.6830    -0.2093 
C    5.0518    -0.4762     0.2082 
F   -1.3723     0.4623    -2.2484 
F    0.9648     1.3813     1.7320 
F   -0.5458     3.5589     2.1077 
F   -2.4700     4.2015     0.3142 
F   -2.8742     2.6440    -1.8617 
F    2.4972     1.8092    -0.8202 
F    5.1285     1.7852    -0.4110 
F    6.3569    -0.4810     0.4113 
F    4.9215    -2.7347     0.8218 
F    2.2937    -2.7428     0.4225 
C   -3.1878    -1.8487     0.0752 
H   -4.7934    -2.8745    -0.9240 
H   -3.3339    -3.7231    -2.7344 
H   -0.8976    -3.1105    -2.7241 
N   -1.8812    -1.5488     0.0704 
O    0.1939    -1.6439    -0.8910 
C   -3.9774    -1.2697     1.2407 
C   -3.4117    -1.8460     2.5447 
H   -2.3504    -1.6166     2.6352 
H   -3.9376    -1.4157     3.3991 
H   -3.5350    -2.9302     2.5765 
C   -3.7901     0.2534     1.2378 
H   -2.7328     0.5054     1.3306 
H   -4.1729     0.6917     0.3126 
H   -4.3301     0.6971     2.0764 
C   -5.4657    -1.5957     1.1461 
H   -5.6444    -2.6722     1.1773 
H   -5.9881    -1.1484     1.9926 
H   -5.9078    -1.1956     0.2315 











 
