52

 C                 -2.87123900   -2.62122600   -2.35369700
 C                 -1.70374200   -1.91493400   -2.29037600
 C                 -3.68433600   -2.80820400   -1.21915500
 C                 -1.31454100   -1.36579100   -1.05099100
 B                  0.33282200    0.05877700    0.29661000
 C                  0.11826900    1.66505900    0.00274700
 C                  1.07219800    2.66028100    0.14517400
 C                 -1.14315400    2.11900700   -0.35205000
 C                  0.81187500    4.00348500   -0.08197000
 C                 -1.45186500    3.44524600   -0.59025700
 C                 -0.45814700    4.39856200   -0.45723100
 C                  1.89306300   -0.43214100    0.33327400
 C                  2.46627500   -1.20878300    1.32666600
 C                  2.72567300   -0.14388200   -0.74022900
 C                  3.77959000   -1.65644300    1.27649100
 C                  4.03548200   -0.57122300   -0.83369700
 C                  4.56862600   -1.33594300    0.19051800
 F                 -2.16130200    1.24473800   -0.46686500
 F                  2.31729500    2.36787400    0.53437300
 F                  1.76708000    4.91469800    0.06533700
 F                 -0.72572900    5.67859400   -0.67681400
 F                 -2.68307900    3.81270700   -0.93436600
 F                  2.26202700    0.59718100   -1.75335300
 F                  4.78689500   -0.26089300   -1.88550700
 F                  5.82399800   -1.75992000    0.12450800
 F                  4.28021300   -2.39787000    2.26126000
 F                  1.77386100   -1.58150800    2.41139700
 C                 -3.28808800   -2.27121400   -0.02562000
 H                 -4.60575500   -3.36264500   -1.29142600
 H                 -3.18358800   -3.04491900   -3.29986700
 H                 -1.06463300   -1.74890600   -3.14407200
 N                 -2.12006900   -1.58416300    0.00531200
 O                 -0.23563300   -0.68916000   -0.92217800
 C                 -4.02506200   -2.35063600    1.29653500
 C                 -3.12507600   -3.04938400    2.32758500
 H                 -2.19162600   -2.50747600    2.49210000
 H                 -3.64877400   -3.10860100    3.28257900
 H                 -2.87889500   -4.06282000    2.00715000
 C                 -4.34122300   -0.92300800    1.77042300
 H                 -3.43567500   -0.33645200    1.93801200
 H                 -4.95523000   -0.39525700    1.03924200
 H                 -4.88801100   -0.96866500    2.71313700
 C                 -5.32690200   -3.13338600    1.14924200
 H                 -5.14305300   -4.15914700    0.82557400
 H                 -5.83179900   -3.17306500    2.11456800
 H                 -6.00248300   -2.65624900    0.43747400
 H                 -1.75786100   -1.14712100    0.87240500
 O                 -0.43110100   -0.33223500    1.47489600
 C                 -0.23651700    0.42850300    2.64695400
 H                 -0.82705700    1.34923700    2.61613900
 H                 -0.54319000   -0.17064300    3.50377500
 H                  0.81578400    0.69583300    2.77520600