48

 C                 -2.82596700   -3.21940800   -1.92247200
 C                 -1.51530500   -2.84494300   -1.94457700
 C                 -3.71457000   -2.75129800   -0.93034900
 C                 -1.04207600   -1.96874000   -0.94404400
 B                  0.64713400   -0.56191900    0.15936500
 C                 -0.15133700    0.86184000    0.06933900
 C                 -0.06599900    1.72385200    1.15600800
 C                 -0.97453200    1.29741900   -0.95630100
 C                 -0.74381200    2.92712300    1.23692100
 C                 -1.68081200    2.49013000   -0.91531100
 C                 -1.56356200    3.31214400    0.18893300
 C                  2.24991600   -0.47949300   -0.00227000
 C                  3.00362900   -1.60183500    0.31464200
 C                  2.97704600    0.62141300   -0.42446000
 C                  4.38295600   -1.64423600    0.23025700
 C                  4.36044100    0.62454400   -0.51924700
 C                  5.06680300   -0.51651200   -0.19008800
 F                 -1.15036500    0.55204800   -2.05923200
 F                  0.71536700    1.39912900    2.18938000
 F                 -0.62030400    3.71343200    2.29988900
 F                 -2.23029100    4.45716400    0.24628300
 F                 -2.47610100    2.84312200   -1.92098500
 F                  2.36222500    1.75842200   -0.77144000
 F                  5.01218100    1.70858900   -0.92924000
 F                  6.39045100   -0.53328700   -0.27938400
 F                  5.05734500   -2.74632000    0.54588400
 F                  2.38992900   -2.71672600    0.72610300
 C                 -3.24673200   -1.91678000    0.04141000
 H                 -4.75182300   -3.04355600   -0.94459200
 H                 -3.20071100   -3.88417300   -2.69035100
 H                 -0.81679200   -3.17156900   -2.69960500
 N                 -1.92658500   -1.58115900    0.00146200
 O                  0.15602600   -1.53767900   -0.91928400
 C                 -4.04221500   -1.28773900    1.16821700
 C                 -3.45262200   -1.73300100    2.51548500
 H                 -2.41406400   -1.41944900    2.64066500
 H                 -4.02774300   -1.28351100    3.32568200
 H                 -3.49636600   -2.81773800    2.62185400
 C                 -3.95238100    0.24310200    1.04261900
 H                 -2.93198400    0.61365600    1.17105900
 H                 -4.31407000    0.57890000    0.06902800
 H                 -4.56623200    0.70434200    1.81703800
 C                 -5.50665300   -1.71256000    1.09605800
 H                 -5.61494600   -2.79407200    1.19186200
 H                 -6.05401200   -1.24781200    1.91600900
 H                 -5.96963900   -1.39368400    0.16099400
 H                  0.37870400   -1.05728600    1.23714500
 H                 -1.55323000   -0.97501300    0.72525400