51

C       -3.040879000     -3.089850000     -1.968870000
C       -1.664447000     -3.061925000     -2.014384000
C       -3.711135000     -2.344375000     -1.005488000
C       -1.025776000     -2.275916000     -1.062891000
B        1.147426000     -1.172041000     -0.838287000
C        0.613532000      0.299058000     -0.624087000
C        1.126759000      1.131628000      0.359928000
C       -0.374337000      0.847613000     -1.429296000
C        0.661691000      2.417470000      0.573465000
C       -0.853313000      2.132548000     -1.258593000
C       -0.336771000      2.919044000     -0.243516000
C        2.695082000     -1.477042000     -0.893793000
C        3.216091000     -2.711265000     -0.518856000
C        3.624474000     -0.537544000     -1.324301000
C        4.566640000     -3.001921000     -0.558021000
C        4.982819000     -0.794726000     -1.387956000
C        5.454885000     -2.035712000     -1.000213000
F       -0.897575000      0.131080000     -2.424885000
F        2.109146000      0.703893000      1.155469000
F        1.167563000      3.171508000      1.539689000
F       -0.794054000      4.145265000     -0.056703000
F       -1.813347000      2.609733000     -2.039682000
F        3.228859000      0.673060000     -1.717783000
F        5.829981000      0.129949000     -1.816554000
F        6.748432000     -2.299330000     -1.050494000
F        5.018919000     -4.188350000     -0.175977000
F        2.414481000     -3.678256000     -0.063886000
C       -2.978077000     -1.607596000     -0.084613000
H       -4.789694000     -2.341256000     -0.980779000
H       -3.597656000     -3.676019000     -2.688583000
H       -1.085832000     -3.597076000     -2.752418000
N       -1.634765000     -1.606311000     -0.114145000
O        0.340474000     -2.220943000     -1.134348000
C       -3.627635000     -0.773280000      1.013137000
C       -3.438787000     -1.497439000      2.351664000
H       -2.385955000     -1.645685000      2.582398000
H       -3.887991000     -0.911157000      3.155874000
H       -3.922365000     -2.476041000      2.331934000
C       -2.951873000      0.601908000      1.065420000
H       -1.874558000      0.504015000      1.206505000
H       -3.127651000      1.151850000      0.137466000
H       -3.363197000      1.185816000      1.890538000
C       -5.123348000     -0.572721000      0.767088000
H       -5.674316000     -1.512535000      0.827978000
H       -5.526032000      0.091284000      1.533112000
H       -5.313562000     -0.118441000     -0.207314000
C        0.283767000     -1.526036000      2.611052000
O        1.141797000     -1.927782000      1.665488000
H        0.071556000     -0.456285000      2.498890000
O       -0.172332000     -2.235859000      3.452380000
H        1.269643000     -2.887328000      1.741478000




























