72

C       10.774413000     11.309235000      6.735001000
H       10.534189000     11.393487000      5.676013000
H       10.076317000     11.934978000      7.293278000
C       12.201636000     11.725363000      7.111807000
H       12.257138000     12.803025000      6.982006000
H       12.927375000     11.299845000      6.413742000
C        9.083341000      9.773519000      8.554078000
C        7.872684000     10.353609000      8.127692000
C        6.871837000     10.570508000      9.065874000
H        5.940797000     11.018892000      8.737936000
C        7.024429000     10.220210000     10.400062000
C        8.212191000      9.614295000     10.783294000
H        8.340876000      9.313870000     11.816616000
C        9.252570000      9.375626000      9.892229000
C        7.545401000     10.662140000      6.687732000
H        7.253988000      9.748323000      6.163193000
H        8.369902000     11.098040000      6.128894000
H        6.708988000     11.356797000      6.638831000
C        5.944662000     10.505111000     11.403255000
H        5.939531000      9.760678000     12.198481000
H        4.962106000     10.521090000     10.933328000
H        6.108599000     11.481229000     11.864930000
C       10.479144000      8.682614000     10.418004000
H       10.321696000      8.394824000     11.455130000
H       11.354323000      9.332152000     10.383935000
H       10.711862000      7.778009000      9.854537000
C        9.881242000      8.497311000      5.962469000
C        8.878212000      7.521304000      6.133763000
C        8.451106000      6.810709000      5.018944000
H        7.678231000      6.061783000      5.150462000
C        9.003071000      6.994634000      3.758264000
C       10.073196000      7.867545000      3.644388000
H       10.586837000      7.957900000      2.693761000
C       10.540290000      8.608516000      4.723570000
C        8.285328000      7.123259000      7.463097000
H        7.496369000      7.798375000      7.797430000
H        9.044275000      7.084192000      8.243403000
H        7.855385000      6.127493000      7.371204000
C        8.482377000      6.240641000      2.569345000
H        7.639352000      6.772935000      2.123329000
H        8.132263000      5.249124000      2.854571000
H        9.249127000      6.132131000      1.803556000
C       11.795897000      9.415978000      4.507856000
H       12.397261000      8.933613000      3.739139000
H       12.414450000      9.472877000      5.402215000
H       11.593233000     10.432849000      4.169796000
C       13.775132000     11.956879000      9.348606000
C       13.759509000     13.366896000      9.447390000
C       14.848341000     14.108156000      9.882932000
H       14.789564000     15.188531000      9.918759000
C       16.006751000     13.470564000     10.276150000
C       16.035923000     12.092712000     10.308120000
H       16.915507000     11.588355000     10.678349000
C       14.938117000     11.354577000      9.878280000
C       12.568072000     14.242581000      9.107188000
C       17.177405000     14.290856000     10.731491000
C       15.079525000      9.853881000     10.084345000
F       11.388804000     13.622681000      9.119244000
F       12.462874000     15.253718000      9.985097000
F       12.697555000     14.823163000      7.898578000
F       18.272918000     13.550616000     10.917621000
F       16.923350000     14.918649000     11.888945000
F       17.485564000     15.244731000      9.842349000
F       16.092130000      9.582025000     10.929947000
F       15.356633000      9.182393000      8.967089000
F       13.993255000      9.319155000     10.652592000
P       10.388778000      9.603294000      7.308020000
B       12.533671000     11.186370000      8.619026000
H       11.542881000     11.221742000      9.320073000
C       12.036628000      8.860302000      7.929182000
O       12.872025000      9.700290000      8.401639000
O       12.180961000      7.683290000      7.742317000
