71

 C                  9.99430000   12.09160000    7.79540000
 H                  9.33530000   12.50170000    7.03100000
 H                  9.63140000   12.44420000    8.76700000
 C                 11.49560000   12.41120000    7.64430000
 H                 11.57110000   13.38410000    7.15930000
 H                 11.96480000   11.69400000    6.95690000
 C                  8.25930000    9.82370000    8.70740000
 C                  7.04530000    9.78770000    8.00380000
 C                  5.89340000    9.40380000    8.67810000
 H                  4.95460000    9.38060000    8.13670000
 C                  5.91100000    9.06500000   10.02440000
 C                  7.12020000    9.13430000   10.70510000
 H                  7.14560000    8.89560000   11.76220000
 C                  8.30330000    9.50900000   10.08050000
 C                  6.94160000   10.17730000    6.55470000
 H                  7.45100000    9.46460000    5.90400000
 H                  7.38250000   11.16090000    6.38370000
 H                  5.89820000   10.23020000    6.25070000
 C                  4.66040000    8.62600000   10.73010000
 H                  4.63120000    7.53700000   10.80700000
 H                  3.76920000    8.94720000   10.19340000
 H                  4.62070000    9.02740000   11.74240000
 C                  9.56550000    9.56370000   10.90070000
 H                  9.33560000    9.38500000   11.94870000
 H                 10.07310000   10.52770000   10.82570000
 H                 10.28460000    8.80260000   10.58670000
 C                 10.08550000    9.35490000    6.37610000
 C                 10.32160000    7.97800000    6.58080000
 C                 10.54430000    7.16440000    5.47820000
 H                 10.72120000    6.10730000    5.63920000
 C                 10.55710000    7.66610000    4.18470000
 C                 10.33890000    9.02500000    4.01030000
 H                 10.35370000    9.43470000    3.00710000
 C                 10.10430000    9.88990000    5.07400000
 C                 10.37070000    7.34360000    7.94720000
 H                  9.45270000    7.50790000    8.51390000
 H                 11.20450000    7.73570000    8.53410000
 H                 10.51440000    6.26970000    7.85220000
 C                 10.83890000    6.77140000    3.01270000
 H                 10.47240000    5.76120000    3.19100000
 H                 11.91510000    6.70740000    2.83840000
 H                 10.37810000    7.15480000    2.10330000
 C                  9.89220000   11.34300000    4.74090000
 H                 10.01200000   11.49160000    3.67000000
 H                 10.61070000   11.98470000    5.24920000
 H                  8.88890000   11.67890000    5.00370000
 C                 13.80610000   12.19780000    9.17000000
 C                 14.70420000   13.11430000    8.58440000
 C                 16.08560000   12.99310000    8.66610000
 H                 16.72690000   13.72600000    8.19900000
 C                 16.64330000   11.93030000    9.34670000
 C                 15.81670000   10.98660000    9.92700000
 H                 16.25300000   10.14550000   10.44700000
 C                 14.43910000   11.12050000    9.83100000
 C                 14.21270000   14.27710000    7.75040000
 C                 18.12830000   11.78710000    9.48740000
 C                 13.63510000   10.00930000   10.47080000
 F                 13.19090000   14.94260000    8.28130000
 F                 15.18080000   15.18570000    7.53890000
 F                 13.82580000   13.86730000    6.52570000
 F                 18.54210000   12.06290000   10.73400000
 F                 18.79830000   12.60140000    8.66600000
 F                 18.53500000   10.53610000    9.22490000
 F                 14.42370000    9.04910000   10.98280000
 F                 12.84300000    9.36580000    9.58020000
 F                 12.85400000   10.40930000   11.47590000
 P                  9.79050000   10.31040000    7.88420000
 B                 12.17890000   12.37850000    9.14520000
 H                 11.88100000   13.39430000    9.73810000
 H                 10.80840000    9.90400000    8.73530000
 H                 11.66970000   11.46060000    9.74730000
