73

C       10.320459000     11.734154000      7.277825000
H        9.915330000     11.917397000      6.285643000
H        9.677666000     12.238325000      8.002018000
C       11.767010000     12.207910000      7.483075000
H       11.749730000     13.298206000      7.443922000
H       12.406145000     11.882900000      6.659279000
C        8.848706000      9.897215000      8.988144000
C        7.544553000     10.216934000      8.560996000
C        6.513805000     10.203049000      9.492431000
H        5.511459000     10.451307000      9.161921000
C        6.729789000      9.886556000     10.826139000
C        8.021953000      9.570754000     11.218777000
H        8.211587000      9.320105000     12.256117000
C        9.093796000      9.566762000     10.332345000
C        7.177901000     10.535367000      7.131938000
H        7.114580000      9.625162000      6.531253000
H        7.893449000     11.195501000      6.644548000
H        6.206588000     11.025438000      7.102644000
C        5.606421000      9.919987000     11.821866000
H        5.754581000      9.180029000     12.607580000
H        4.646638000      9.732074000     11.342220000
H        5.554152000     10.901352000     12.298280000
C       10.444753000      9.186220000     10.868614000
H       10.390323000      9.058989000     11.947666000
H       11.201575000      9.935761000     10.644878000
H       10.790120000      8.238595000     10.448034000
C        9.701250000      8.823168000      6.377519000
C        9.081963000      7.593912000      6.697080000
C        8.646018000      6.773373000      5.664986000
H        8.172395000      5.831681000      5.919417000
C        8.817406000      7.103634000      4.327778000
C        9.509321000      8.267651000      4.038511000
H        9.720913000      8.514249000      3.003988000
C        9.971247000      9.128373000      5.030104000
C        8.885838000      7.069337000      8.099061000
H        7.971404000      7.451996000      8.555459000
H        9.712013000      7.324909000      8.760334000
H        8.816397000      5.983379000      8.064892000
C        8.291710000      6.214931000      3.238085000
H        7.237253000      6.428724000      3.050629000
H        8.369649000      5.164165000      3.515832000
H        8.833275000      6.369434000      2.306053000
C       10.774103000     10.314226000      4.554971000
H       11.294201000     10.044121000      3.637320000
H       11.524286000     10.641730000      5.269618000
H       10.133335000     11.166716000      4.321772000
C       13.657072000     12.496279000      9.439554000
C       13.574060000     13.637286000     10.258730000
C       14.688560000     14.308819000     10.744414000
H       14.573667000     15.176068000     11.377271000
C       15.950848000     13.856486000     10.419602000
C       16.091524000     12.757726000      9.592846000
H       17.082303000     12.418864000      9.322071000
C       14.969401000     12.101460000      9.106081000
C       12.232362000     14.190569000     10.694465000
C       17.183296000     14.548863000     10.920814000
C       15.276274000     10.926371000      8.195723000
F       11.631266000     13.424862000     11.612326000
F       12.359558000     15.405842000     11.256192000
F       11.375864000     14.349832000      9.677154000
F       16.901105000     15.527802000     11.785219000
F       17.886752000     15.098329000      9.919286000
F       18.012417000     13.697684000     11.541425000
F       16.503429000     11.051539000      7.652686000
F       14.440854000     10.822949000      7.153776000
F       15.282405000      9.753127000      8.832760000
P       10.159069000      9.962093000      7.729826000
B       12.312362000     11.708960000      8.947379000
H       11.398995000     11.899055000      9.737032000
C       11.905109000      9.444602000      8.124039000
O       12.597135000     10.231902000      8.980923000
H       12.310714000      9.458361000      7.095245000
H       11.889672000      8.396701000      8.440883000

































