72

 C                 10.61526000   11.44821000    7.58936000
 H                 10.19377000   11.90401900    6.69673500
 H                 10.16315300   11.96015200    8.44391800
 C                 12.14548300   11.58664600    7.68727400
 H                 12.41605400   12.59078700    7.35672100
 H                 12.64280700   10.91046900    6.97997500
 C                  8.39026700    9.86356500    8.54387600
 C                  7.25341300   10.13182200    7.76507300
 C                  6.00760100   10.19591400    8.38459100
 H                  5.13481700   10.40779600    7.77640200
 C                  5.85121400   10.01439500    9.75009200
 C                  6.99047000    9.78272600   10.51084700
 H                  6.89410200    9.66371300   11.58461800
 C                  8.25243300    9.70425500    9.93621900
 C                  7.30975600   10.36929100    6.27929300
 H                  7.37599800    9.43054600    5.72542200
 H                  8.17504400   10.96971600    6.00252000
 H                  6.41367800   10.89456900    5.95212800
 C                  4.49364600   10.05941500   10.39275700
 H                  4.12026600    9.04859400   10.57072300
 H                  3.77320400   10.57369200    9.75815000
 H                  4.53174000   10.56892800   11.35565400
 C                  9.43381300    9.45940700   10.84141200
 H                  9.11043800    9.41959900   11.88025400
 H                 10.17973100   10.25256000   10.75059100
 H                  9.92527300    8.51348300   10.60204500
 C                  9.87809500    8.70615800    6.31333800
 C                  9.41214800    7.39190600    6.53642300
 C                  9.21569900    6.53711000    5.45726900
 H                  8.84675800    5.53526900    5.64855600
 C                  9.48778100    6.92174100    4.15438400
 C                  9.97753100    8.20365800    3.95437200
 H                 10.21044000    8.52425700    2.94466600
 C                 10.17989600    9.10324000    4.99664500
 C                  9.09890100    6.85227400    7.90918700
 H                  8.16474700    7.26011100    8.30030800
 H                  9.88374000    7.10032400    8.62649900
 H                  9.00532700    5.76842700    7.87103800
 C                  9.30411600    5.97240000    3.00440700
 H                  8.54222900    5.22618800    3.22722400
 H                 10.23545500    5.44286600    2.79177400
 H                  9.01338800    6.50343200    2.09823100
 C                 10.69069400   10.46787600    4.61111500
 H                 11.05199800   10.44547600    3.58452500
 H                 11.50794700   10.80597200    5.24236200
 H                  9.89898100   11.21829000    4.65724200
 C                 14.23353700   11.95125900    9.37255700
 C                 14.33018600   13.35776600    9.44257300
 C                 15.54061400   14.02903100    9.59150300
 H                 15.55729800   15.10913800    9.62922100
 C                 16.71799500   13.32465300    9.69130800
 C                 16.68407900   11.94510400    9.63453200
 H                 17.60637300   11.38672600    9.70814200
 C                 15.47662100   11.28242000    9.47528400
 C                 13.17041600   14.33018800    9.28411900
 C                 18.03829200   14.01615200    9.87027200
 C                 15.58874200    9.77528400    9.40969100
 F                 11.95852600   13.85079700    9.53889900
 F                 13.32895800   15.39073000   10.09257400
 F                 13.14077600   14.81965000    8.03010000
 F                 18.58563300   13.73061400   11.05971200
 F                 17.92781000   15.34390200    9.79303200
 F                 18.92352900   13.63263500    8.94129800
 F                 16.85412800    9.35370400    9.50010400
 F                 15.10521500    9.26727500    8.27716200
 F                 14.94269600    9.17635700   10.43914300
 P                 10.07995000    9.69838100    7.84667500
 B                 12.74620700   11.30011900    9.16669700
 H                 12.02668300   11.62829000   10.07496800
 H                 11.81806100    9.39568800    8.93912700
 O                 12.73349200    9.69443000    9.26930300
 H                 12.89142400    9.35232200   10.15837100