74

C       10.557849000     11.761278000      7.491672000
H       10.013338000     12.337456000      6.744336000
H       10.484267000     12.310815000      8.432497000
C       12.028526000     11.477848000      7.137462000
H       12.416769000     12.381947000      6.664151000
H       12.084292000     10.695855000      6.373358000
C        8.184155000     10.559044000      8.829686000
C        6.982168000     10.983985000      8.241756000
C        5.875056000     11.190002000      9.053982000
H        4.946066000     11.513377000      8.598347000
C        5.928823000     11.002308000     10.428739000
C        7.134956000     10.606557000     10.991255000
H        7.197390000     10.469490000     12.064777000
C        8.272715000     10.382463000     10.225253000
C        6.858895000     11.258048000      6.768504000
H        7.042619000     10.366236000      6.168185000
H        7.572491000     12.025161000      6.461729000
H        5.862902000     11.627599000      6.533200000
C        4.727335000     11.261306000     11.291528000
H        4.704923000     10.587194000     12.147069000
H        3.802981000     11.140514000     10.728364000
H        4.751845000     12.282887000     11.677038000
C        9.539252000      9.967717000     10.928862000
H        9.393778000     10.005507000     12.006230000
H       10.380674000     10.617326000     10.683332000
H        9.831157000      8.947267000     10.667975000
C        9.356879000      9.115416000      6.460377000
C        9.090476000      7.781305000      6.833911000
C        8.853432000      6.842184000      5.840097000
H        8.647192000      5.818578000      6.130898000
C        8.885913000      7.172645000      4.493400000
C        9.159085000      8.488908000      4.150714000
H        9.190224000      8.763316000      3.102660000
C        9.398899000      9.475744000      5.100869000
C        9.088413000      7.316187000      8.265250000
H        8.427316000      7.913297000      8.896203000
H       10.102866000      7.365062000      8.668687000
H        8.752502000      6.282930000      8.320300000
C        8.668729000      6.127760000      3.437403000
H        7.962704000      5.369067000      3.773330000
H        9.610207000      5.624374000      3.207128000
H        8.293969000      6.569194000      2.514930000
C        9.682922000     10.863229000      4.586808000
H        9.667284000     10.857847000      3.499041000
H       10.661299000     11.222741000      4.901423000
H        8.934199000     11.582345000      4.917648000
C       14.057866000     12.160760000      8.859068000
C       13.905063000     12.946196000     10.021383000
C       14.835595000     13.887951000     10.431633000
H       14.675275000     14.462749000     11.333056000
C       15.983673000     14.087352000      9.687649000
C       16.182924000     13.355302000      8.537590000
H       17.076512000     13.513453000      7.951667000
C       15.234754000     12.420965000      8.130175000
C       12.704911000     12.781616000     10.927145000
C       16.978714000     15.110433000     10.149799000
C       15.614212000     11.687113000      6.855119000
F       12.677613000     11.602179000     11.555908000
F       12.671976000     13.713944000     11.891692000
F       11.536610000     12.908086000     10.269105000
F       16.451691000     16.344155000     10.157997000
F       18.064757000     15.151201000      9.374078000
F       17.392411000     14.868361000     11.401552000
F       16.415396000     12.454008000      6.087899000
F       14.578567000     11.367527000      6.078786000
F       16.305746000     10.569237000      7.097637000
P        9.664101000     10.238550000      7.841478000
B       12.962565000     11.012269000      8.419471000
H       12.259236000     10.716904000      9.358047000
C       13.312054000      8.632381000      7.884662000
O       13.813999000      9.801997000      8.081822000
O       12.134215000      8.324304000      7.911653000
H       14.088175000      7.882211000      7.674283000
H       10.515980000      9.525460000      8.667898000



























