47
SiC20N2H12O4Cl8
Cl       2.278151000      2.828428000      5.865152000
Cl       7.437755000     -1.571246000      2.792752000
Cl       8.534276000      4.525264000      2.049681000
Cl       1.728457000      5.581427000      0.293254000
Cl       0.003913000      6.631865000      2.724207000
Cl      10.395284000     -0.477892000      3.061206000
Cl      10.941643000      2.580314000      2.688127000
Cl       0.280934000      5.251988000      5.517610000
Si       4.510983000      2.019303000      1.760588000
O        3.746033000      2.206663000      3.295348000
O        5.895750000      3.048869000      1.947910000
O        3.520705000      3.285334000      1.100510000
O        5.473169000      0.645365000      2.239685000
N        5.013961000      1.676598000     -0.132960000
N        3.142532000      0.524935000      1.242165000
C        6.761279000      0.977943000      2.379223000
C        7.000261000      2.345915000      2.214441000
C        2.749496000      3.840888000      2.043183000
C        4.625109000      0.517386000     -0.664901000
C        5.732920000      2.546806000     -0.847392000
H        5.996397000      3.465381000     -0.339964000
C        6.106481000      2.266262000     -2.147619000
H        6.690606000      2.985151000     -2.702986000
C        2.872065000      3.220009000      3.290985000
C        2.112511000      3.641125000      4.362998000
C        1.100067000      5.327116000      2.943900000
C        8.284265000      2.845414000      2.297942000
C        9.341911000      1.964760000      2.570437000
C        7.795401000      0.102774000      2.631039000
C        9.100333000      0.603944000      2.736248000
C        3.829397000     -0.346230000      0.268076000
H        3.106991000     -0.956339000     -0.280048000
H        4.509872000     -1.001690000      0.812895000
C        1.865618000      4.882028000      1.855894000
C        1.222821000      4.711758000      4.186113000
C        4.958139000      0.172838000     -1.961889000
H        4.624123000     -0.770591000     -2.371377000
C        2.748621000     -0.285229000      2.419979000
H        2.168628000      0.333548000      3.098473000
H        2.147585000     -1.135024000      2.086385000
H        3.643727000     -0.629293000      2.930227000
C        5.716259000      1.060054000     -2.709563000
H        5.993982000      0.814988000     -3.726307000
C        1.919167000      1.078343000      0.618434000
H        2.179327000      1.656742000     -0.265079000
H        1.248158000      0.258959000      0.349822000
H        1.420603000      1.734833000      1.327906000
