53
SiC21N2H16O5Cl8
Cl       1.344086000      1.855487000      5.569064000
Cl       7.376583000     -0.498932000      2.726388000
Cl       7.537831000      4.363827000     -1.183830000
Cl       2.676504000      7.450124000      3.139447000
Cl       0.418400000      7.205592000      5.334753000
Cl       9.706366000     -0.276706000      0.615183000
Cl       9.778668000      2.147584000     -1.355157000
Cl      -0.253702000      4.403740000      6.550349000
Si       4.336570000      3.147956000      2.115672000
O        3.439352000      2.589409000      3.503832000
O        5.564440000      3.777020000      1.046134000
O        3.941832000      4.755318000      2.528938000
O        5.396524000      1.805897000      2.444358000
N        4.436766000      0.801431000     -1.223177000
N        3.132000000     -0.048608000      0.991765000
C        6.489727000      1.801088000      1.673283000
C        6.552556000      2.920292000      0.834679000
C        2.963248000      4.810925000      3.445790000
C        5.054173000     -0.186510000     -0.589708000
C        5.062690000      1.378256000     -2.250014000
H        4.534684000      2.191738000     -2.734504000
C        6.319607000      0.992648000     -2.682448000
H        6.799427000      1.511980000     -3.500187000
C        2.670519000      3.560095000      3.995266000
C        1.682288000      3.423396000      4.946530000
C        1.280814000      5.809729000      4.823335000
C        7.564206000      3.037843000     -0.097051000
C        8.556807000      2.047522000     -0.149513000
C        7.480438000      0.844654000      1.653825000
C        8.526194000      0.969793000      0.727019000
C        4.380343000     -0.765410000      0.634289000
H        4.137057000     -1.822152000      0.499608000
H        5.055997000     -0.680096000      1.485379000
C        2.282734000      5.939244000      3.848528000
C        0.981906000      4.562869000      5.365612000
C        6.307116000     -0.661262000     -0.960841000
H        6.785697000     -1.452037000     -0.394513000
C        2.802601000     -0.230418000      2.430633000
H        1.915527000      0.355248000      2.659412000
H        2.623502000     -1.289129000      2.614858000
H        3.630830000      0.140405000      3.029159000
C        6.950536000     -0.054017000     -2.023757000
H        7.945382000     -0.369916000     -2.312265000
C        1.988710000     -0.434657000      0.131805000
H        2.274980000     -0.310137000     -0.907581000
H        1.725689000     -1.470236000      0.343544000
H        1.150236000      0.216831000      0.368435000
O        3.237898000      2.625443000      0.960990000
C        2.976464000      3.374700000     -0.219192000
H        2.347878000      2.769984000     -0.872136000
H        2.456293000      4.298967000      0.037287000
H        3.903637000      3.620621000     -0.737335000
H        3.282935000      0.989338000      0.842751000
