51
SiC21N2H14O5Cl8
Cl       1.111357000      1.520299000      9.566882000
Cl       3.671082000      1.750985000      7.733229000
Cl      -1.725421000      4.880155000     15.216564000
Cl       1.084476000      5.485348000     19.823727000
Cl       6.547975000      3.252758000     12.082468000
Cl      -1.545740000      5.926939000     18.192935000
Cl       3.527572000      4.003542000     18.476239000
Cl       6.392370000      2.640483000      8.983300000
Si       2.287512000      2.677412000     14.064000000
O        0.851789000      3.526120000     14.348625000
O        2.896500000      3.207625000     15.609605000
O        1.720827000      2.343588000     12.429903000
O        3.829478000      3.040650000     13.400010000
N        4.078606000     -0.622930000     11.419631000
N        3.629871000     -0.784043000     14.296044000
C        0.779188000      4.026395000     15.595370000
C       -0.303528000      4.668592000     16.152129000
C        2.692297000      2.406077000     11.531355000
C        1.959268000      3.832060000     16.317126000
C        3.914253000      2.801315000     12.083753000
C        5.102159000     -0.384489000     12.232627000
C        3.757963000      2.179324000      9.397061000
C        4.329416000     -0.805414000     10.125267000
H        3.465711000     -0.975548000      9.491469000
C        5.059333000      2.861118000     11.321519000
C        3.549250000     -2.215928000     13.902328000
H        3.236277000     -2.281423000     12.865605000
H        4.531611000     -2.668177000     14.026582000
H        2.829763000     -2.707135000     14.553271000
C       -0.204204000      5.126129000     17.475303000
C        0.967390000      4.929428000     18.200666000
C        6.418202000     -0.325283000     11.788683000
H        7.223156000     -0.118160000     12.481702000
C        4.975725000      2.558598000      9.954255000
C        2.605619000      2.087588000     10.189851000
C        5.605901000     -0.758053000      9.586449000
H        5.751926000     -0.887384000      8.523298000
C        2.063261000      4.275678000     17.619596000
C        6.669268000     -0.510079000     10.438507000
H        7.680065000     -0.449611000     10.057646000
C        3.766381000     -0.691717000     15.781181000
H        2.840650000     -1.040434000     16.233410000
H        4.599784000     -1.321972000     16.084216000
H        3.933437000      0.345353000     16.058243000
C        2.303747000     -0.080769000     13.899605000
O        2.213671000      1.073280000     14.589902000
C        4.825415000     -0.098570000     13.692000000
H        4.683296000      0.972795000     13.858466000
H        5.686653000     -0.408586000     14.284058000
H        2.327724000      0.015756000     12.814978000
H        1.531961000     -0.790452000     14.211991000
