82

P    5.4898     7.8844    14.8188 
C    2.1615     7.4359    14.3288 
H    2.1651     8.1983    13.5475 
H    1.1002     7.2837    14.5394 
C    2.7675     8.0688    15.5975 
H    3.0302     7.2765    16.3063 
C    4.0253     8.9145    15.3270 
H    4.3394     9.3949    16.2562 
H    3.7840     9.7106    14.6307 
C    1.7317     8.9635    16.2794 
H    2.1370     9.4380    17.1753 
H    0.8554     8.3814    16.5670 
H    1.4028     9.7517    15.5970 
C    6.7151     8.3736    16.0968 
C    7.3552     9.6235    16.0792 
C    8.2902     9.9188    17.0672 
H    8.7800    10.8865    17.0486 
C    8.6029     9.0222    18.0786 
C    7.9318     7.8064    18.1019 
H    8.1402     7.1030    18.9008 
C    6.9944     7.4664    17.1337 
C    7.0699    10.6744    15.0389 
H    7.3870    11.6521    15.3985 
H    6.0074    10.7280    14.7999 
H    7.5988    10.4651    14.1070 
C    9.6411     9.3501    19.1143 
H    9.3827     8.9191    20.0813 
H    9.7527    10.4270    19.2341 
H   10.6130     8.9460    18.8225 
C    6.3123     6.1254    17.2445 
H    5.2247     6.2205    17.2577 
H    6.6160     5.6223    18.1611 
H    6.5759     5.4796    16.4038 
C    6.2876     8.3206    13.2162 
C    7.5060     7.6440    12.9731 
C    8.1667     7.8294    11.7653 
H    9.0927     7.2912    11.5946 
C    7.6622     8.6395    10.7598 
C    6.4580     9.2784    11.0037 
H    6.0287     9.9022    10.2269 
C    5.7571     9.1370    12.2001 
C    8.1460     6.6947    13.9552 
H    8.8643     6.0620    13.4366 
H    7.4094     6.0425    14.4251 
H    8.6701     7.2274    14.7508 
C    8.3706     8.7657     9.4417 
H    9.4315     8.9740     9.5846 
H    7.9400     9.5617     8.8361 
H    8.2892     7.8335     8.8787 
C    4.4570     9.8922    12.2938 
H    4.1920    10.2879    11.3145 
H    4.5296    10.7394    12.9794 
H    3.6371     9.2577    12.6213 
B    2.7386     6.0081    13.7430 
C    1.5375     4.8988    13.6682 
C    0.8170     4.6325    14.8285 
F    1.1641     5.2378    15.9753 
C   -0.2478     3.7547    14.8961 
F   -0.8894     3.5407    16.0402 
C   -0.6424     3.0878    13.7486 
F   -1.6617     2.2413    13.7845 
C    0.0424     3.3093    12.5703 
F   -0.3231     2.6680    11.4661 
C    1.1122     4.1943    12.5515 
F    1.7249     4.3271    11.3713 
C    3.5755     6.1786    12.3387 
C    4.8435     5.7015    12.0461 
F    5.5467     4.9920    12.9516 
C    5.4957     5.9096    10.8407 
F    6.7069     5.4019    10.6285 
C    4.8803     6.6574     9.8600 
F    5.5005     6.9074     8.7137 
C    3.6092     7.1542    10.0918 
F    3.0017     7.8742     9.1534 
C    2.9885     6.8893    11.2969 
F    1.7346     7.3411    11.4308 
O    3.7271     5.4366    14.8343 
H    4.5450     6.0472    14.8834 
C    4.0051     4.0402    14.9965 
H    3.9268     3.5292    14.0400 
H    5.0151     3.9395    15.3858 
H    3.2854     3.6379    15.7059 
























 
