78

P    5.5777     7.8731    15.2018 
C    2.5733     7.8337    13.7390 
H    2.9810     8.7214    13.2486 
H    1.5116     7.8346    13.4748 
C    2.7007     8.0155    15.2559 
H    2.6818     7.0293    15.7361 
C    4.0203     8.6904    15.6709 
H    4.1115     8.6898    16.7635 
H    4.0393     9.7391    15.3749 
C    1.5641     8.8504    15.8448 
H    1.6696     8.9981    16.9225 
H    0.6101     8.3566    15.6608 
H    1.5275     9.8318    15.3647 
C    6.8278     8.3505    16.4222 
C    7.6438     9.4784    16.2459 
C    8.6010     9.7683    17.2104 
H    9.2278    10.6425    17.0760 
C    8.7687     8.9804    18.3405 
C    7.9289     7.8863    18.5091 
H    8.0288     7.2761    19.3995 
C    6.9550     7.5518    17.5772 
C    7.5146    10.3988    15.0630 
H    8.0451    11.3299    15.2528 
H    6.4731    10.6496    14.8592 
H    7.9268     9.9481    14.1587 
C    9.8344     9.2923    19.3510 
H   10.7349     8.7110    19.1414 
H    9.5071     9.0400    20.3590 
H   10.1060    10.3466    19.3265 
C    6.0822     6.3531    17.8581 
H    5.0173     6.5836    17.7879 
H    6.2723     5.9850    18.8638 
H    6.2804     5.5325    17.1640 
C    6.2587     7.8585    13.5293 
C    7.0836     6.7376    13.2599 
C    7.6319     6.6031    11.9973 
H    8.2440     5.7334    11.7864 
C    7.3804     7.5189    10.9784 
C    6.5648     8.5965    11.2657 
H    6.3387     9.3146    10.4844 
C    5.9958     8.7950    12.5233 
C    7.3361     5.6398    14.2594 
H    8.0855     4.9535    13.8720 
H    6.4194     5.0653    14.4267 
H    7.6967     6.0184    15.2188 
C    7.9690     7.3248     9.6117 
H    7.8545     6.2910     9.2836 
H    9.0374     7.5513     9.6199 
H    7.4887     7.9726     8.8797 
C    5.1486    10.0329    12.6517 
H    4.3498    10.0045    11.9080 
H    5.7582    10.9165    12.4506 
H    4.6837    10.1599    13.6200 
B    3.2725     6.4480    13.2250 
C    2.3352     5.1726    13.6267 
C    2.6219     4.3371    14.6930 
F    3.7189     4.5462    15.4543 
C    1.8321     3.2598    15.0599 
F    2.1579     2.4899    16.0985 
C    0.6871     2.9853    14.3355 
F   -0.0873     1.9574    14.6693 
C    0.3514     3.7941    13.2634 
F   -0.7533     3.5368    12.5667 
C    1.1720     4.8607    12.9394 
F    0.7967     5.6187    11.9008 
C    3.7090     6.4104    11.6518 
C    4.6368     5.4652    11.2363 
F    5.0933     4.5500    12.1055 
C    5.1700     5.4119     9.9615 
F    6.0946     4.5033     9.6412 
C    4.7728     6.3453     9.0224 
F    5.2925     6.3304     7.7964 
C    3.8398     7.3008     9.3784 
F    3.4521     8.2082     8.4818 
C    3.3267     7.3080    10.6669 
F    2.4235     8.2654    10.9264 
H    4.3085     6.2553    13.8147 
H    5.3321     6.5456    15.5030 






















