57
BC20N3H32O
N        3.391509000     11.039987000      9.891519000
N        2.894247000     12.713675000      8.319483000
N        3.797387000     13.264304000     10.375408000
C        3.392468000      9.974522000      8.930558000
C        2.400268000      8.999710000      9.062806000
C        2.433509000      7.995182000      8.092526000
H        1.717449000      7.186265000      8.147214000
C        3.363956000      7.985249000      7.058996000
H        3.343836000      7.190541000      6.323444000
C        4.335384000      8.974575000      6.975920000
H        5.075450000      8.957429000      6.186512000
C        4.361075000      9.974912000      7.935617000
H        5.121994000     10.748560000      7.915170000
C        3.363464000     12.308007000      9.518654000
C        3.538944000     13.790575000      7.589725000
H        2.869957000     14.645889000      7.466778000
H        3.818001000     13.424006000      6.599008000
H        4.439520000     14.112882000      8.105909000
C        1.876026000     11.989481000      7.570468000
H        1.304492000     11.348046000      8.232236000
H        2.323481000     11.378348000      6.782998000
H        1.206530000     12.726789000      7.124341000
C        3.174498000     14.573941000     10.440864000
H        2.951923000     14.806116000     11.483823000
H        2.243591000     14.569527000      9.880448000
H        3.831049000     15.353724000     10.045188000
C        4.897178000     13.041518000     11.296461000
H        4.546722000     12.909312000     12.322586000
H        5.558839000     13.909418000     11.262688000
H        5.458024000     12.161111000     10.993802000
C        0.314239000     10.229714000     10.438026000
H        0.677964000     11.236638000     10.175063000
C       -0.232742000     10.363622000     11.875940000
H        0.546354000     10.843823000     12.477593000
H       -1.092821000     11.045612000     11.894965000
C       -0.624141000      9.058423000     12.593073000
H       -0.681277000      9.260422000     13.666867000
H       -1.632615000      8.764289000     12.305040000
C        0.334737000      7.883941000     12.354628000
H       -0.140660000      6.966821000     12.723008000
H        1.235871000      8.034824000     12.953422000
C        0.761928000      7.720745000     10.887702000
H        1.463529000      6.877529000     10.847069000
C       -0.427905000      7.363602000      9.971785000
H       -0.989684000      6.525746000     10.403230000
H       -0.042578000      6.993102000      9.019073000
C       -1.416029000      8.499844000      9.654838000
H       -2.003547000      8.219024000      8.775694000
H       -2.139647000      8.610319000     10.460707000
C       -0.748367000      9.854358000      9.395987000
H       -0.267671000      9.812070000      8.409300000
H       -1.527915000     10.623591000      9.328376000
B        1.492416000      9.092972000     10.427245000
O        2.579251000      9.439813000     11.452392000
C        3.142816000     10.649805000     11.354208000
H        2.523828000     11.476566000     11.740084000
H        4.108896000     10.646832000     11.867063000
