55
BC19N3H32
N        3.300804000     11.102547000      9.676019000
N        2.949666000     12.870124000      8.192464000
N        3.639391000     13.259553000     10.380916000
C        3.294272000      9.987681000      8.784000000
C        2.457205000      8.933210000      9.168736000
C        2.548853000      7.801283000      8.350947000
H        1.964752000      6.926512000      8.606271000
C        3.369911000      7.748302000      7.230571000
H        3.397140000      6.851175000      6.624357000
C        4.169754000      8.832059000      6.889562000
H        4.821217000      8.788418000      6.026592000
C        4.149203000      9.962845000      7.690965000
H        4.796998000     10.807609000      7.480406000
C        3.291026000     12.390658000      9.403776000
C        3.603310000     14.028781000      7.612825000
H        2.900645000     14.853358000      7.470781000
H        4.010248000     13.752195000      6.637283000
H        4.418909000     14.359498000      8.250427000
C        1.981776000     12.197263000      7.335634000
H        1.413129000     11.468463000      7.907635000
H        2.473482000     11.689082000      6.504049000
H        1.298359000     12.953957000      6.946412000
C        2.985740000     14.553726000     10.508493000
H        2.481312000     14.604486000     11.475468000
H        2.240015000     14.677223000      9.728947000
H        3.711486000     15.367181000     10.448531000
C        4.305941000     12.781169000     11.582600000
H        3.588405000     12.416195000     12.323899000
H        4.865428000     13.609287000     12.015975000
H        4.995491000     11.978965000     11.331169000
C        0.397717000     10.262789000     10.405747000
H        0.787300000     11.233127000     10.058733000
C       -0.166531000     10.530341000     11.813596000
H        0.629976000     11.021092000     12.387013000
H       -1.000187000     11.244334000     11.773640000
C       -0.623654000      9.294104000     12.609386000
H       -0.694467000      9.568860000     13.666358000
H       -1.638684000      9.026831000     12.318114000
C        0.282202000      8.060297000     12.474069000
H       -0.252574000      7.195946000     12.887758000
H        1.169622000      8.205968000     13.097761000
C        0.760724000      7.778417000     11.040756000
H        1.429658000      6.909591000     11.095199000
C       -0.400710000      7.384485000     10.104325000
H       -0.988945000      6.573483000     10.552544000
H        0.016911000      6.970258000      9.182922000
C       -1.360073000      8.515672000      9.699303000
H       -1.934776000      8.193955000      8.825522000
H       -2.098302000      8.685435000     10.481828000
C       -0.658727000      9.838663000      9.375091000
H       -0.158861000      9.730218000      8.402900000
H       -1.421922000     10.617569000      9.246736000
B        1.554850000      9.099628000     10.519682000
H        2.368744000      9.448437000     11.411565000
H        3.054984000     10.799141000     10.626716000
