37

 C                 -0.25247900    0.34114500    0.19372000
 H                 -0.18300200    0.69325500    1.21958200
 H                 -0.24750700    1.20512600   -0.46505000
 Si                -2.00450300   -0.69649800   -0.01847800
 P                  1.10151600   -0.73608200   -0.14603000
 C                  2.13939200   -1.01874300    1.35570500
 C                  2.62223300    0.32327000    1.91637600
 C                  1.21568700   -1.69778400    2.38027600
 C                  3.33288900   -1.92860700    1.05710600
 H                  3.25612300    0.86405300    1.21473000
 H                  1.79331900    0.96896400    2.20533000
 H                  3.21357300    0.12137700    2.81207900
 H                  0.94663800   -2.70810800    2.07025500
 H                  1.75595200   -1.76951500    3.32635700
 H                  0.29994400   -1.13128200    2.56235100
 H                  3.78769600   -2.21358100    2.00832200
 H                  3.03169600   -2.83842600    0.53662000
 H                  4.09321800   -1.41186200    0.47124600
 C                  1.95436700   -0.36151800   -1.74108000
 C                  2.80626600   -1.53680700   -2.23437000
 C                  0.84012600   -0.09916300   -2.76586700
 C                  2.82013000    0.89024500   -1.57408800
 H                  3.64766700   -1.74905200   -1.57975500
 H                  2.21941600   -2.44666700   -2.34809100
 H                  3.20759300   -1.26229100   -3.21242900
 H                  0.24697500    0.78258100   -2.52968400
 H                  1.31092700    0.05937000   -3.73799600
 H                  0.16015700   -0.94885900   -2.86198900
 H                  3.17525000    1.19860000   -2.55966400
 H                  2.26222100    1.72447400   -1.14394100
 H                  3.69508400    0.69282400   -0.95382800
 Cl                -2.47085700   -0.24400200    1.99012500
 Cl                -3.78727600   -1.84575400   -0.25319800
 Cl                -2.54385800    0.59023000   -1.60233900
 C                  0.17716300   -2.33303400   -0.42044000
 O                  0.74137500   -3.37185600   -0.61819500
 O                 -1.11499200   -2.16185100   -0.35426200

