36

 C                  0.33499800    1.12845200   -0.13397000
 H                  1.01153000    1.70812000    0.49524000
 H                  0.29833100    1.58304500   -1.12604800
 Si                -1.48298400    1.28583500    0.48399000
 P                  1.01390700   -0.50735500   -0.34274300
 C                  1.85790100   -1.05785400    1.19748400
 C                  0.90021000   -0.70300600    2.34475000
 C                  2.04987300   -2.57929200    1.17868000
 C                  3.19749000   -0.34790500    1.39796300
 H                  0.78079800    0.37152400    2.47674300
 H                 -0.09166600   -1.13806700    2.19694000
 H                  1.30964100   -1.11652900    3.26869400
 H                  2.76835800   -2.91026100    0.43281300
 H                  2.42512500   -2.88401200    2.15770300
 H                  1.10564000   -3.10054000    1.01155500
 H                  3.58171200   -0.60583500    2.38700300
 H                  3.93919600   -0.66037000    0.66217100
 H                  3.09594600    0.73803100    1.35830900
 C                  1.99113000   -0.58099200   -1.90353200
 C                  2.76742900   -1.89506200   -2.01042200
 C                  0.97316500   -0.50302000   -3.05185600
 C                  2.95421900    0.60754500   -1.98659600
 H                  3.58989300   -1.94323500   -1.29706100
 H                  2.12328800   -2.76501600   -1.86951600
 H                  3.19540700   -1.95899100   -3.01291900
 H                  0.36162900    0.39795400   -3.01352400
 H                  1.52769300   -0.50411900   -3.99275300
 H                  0.29248700   -1.35483200   -3.04683800
 H                  3.48850100    0.54759400   -2.93707500
 H                  2.42772400    1.56137600   -1.96341600
 H                  3.69475800    0.60126800   -1.18723900
 Cl                -0.86343400    2.42456700    2.29203400
 Cl                -2.08825900   -0.05403100   -1.33384400
 Cl                -2.45986100    2.89962600   -0.35756100
 H                 -2.14826300    0.28370000    1.31576100
 H                 -0.01560500   -1.43411000   -0.51451700