39

C       -0.236282000     -0.493436000     -0.675995000
H       -0.939602000      0.270243000     -0.322768000
H       -0.140700000     -0.284455000     -1.746391000
Si      -1.210220000     -2.061848000     -0.557769000
P        1.402423000      0.034151000      0.013190000
C        1.336931000     -0.262701000      1.859824000
C        0.207832000      0.644893000      2.369938000
C        1.071821000     -1.684525000      2.352291000
C        2.662932000      0.244650000      2.439493000
H        0.337917000      1.677036000      2.038015000
H       -0.771715000      0.292444000      2.042112000
H        0.209366000      0.637512000      3.462890000
H        1.853244000     -2.383659000      2.067372000
H        1.019912000     -1.672421000      3.445353000
H        0.117857000     -2.071253000      1.997450000
H        2.603641000      0.237395000      3.530873000
H        3.504005000     -0.386434000      2.151244000
H        2.874736000      1.266838000      2.118876000
C        2.737331000     -0.999534000     -0.828130000
C        3.177850000     -2.292830000     -0.144648000
C        2.260589000     -1.319407000     -2.249520000
C        3.953217000     -0.064452000     -0.932742000
H        3.635435000     -2.108015000      0.827227000
H        2.356667000     -2.993917000     -0.017383000
H        3.933618000     -2.774782000     -0.771869000
H        1.908354000     -0.428059000     -2.772080000
H        3.099623000     -1.733820000     -2.814401000
H        1.464225000     -2.066080000     -2.250443000
H        4.772011000     -0.591229000     -1.429916000
H        3.716839000      0.827166000     -1.515582000
H        4.308010000      0.256976000      0.048116000
Cl      -2.490769000     -2.005347000      1.039571000
Cl      -0.151816000     -3.801905000     -0.420765000
Cl      -2.365901000     -2.214468000     -2.234748000
C        1.001395000      2.817726000     -2.510593000
O        0.695657000      1.748777000     -2.966118000
O        1.446734000      3.035189000     -1.286482000
H        0.942064000      3.754956000     -3.078969000
H        1.491123000      2.168519000     -0.798744000





















