50

P   -0.0944    -0.2963     0.6646 
C    1.6456    -0.0562     0.1289 
C    2.0379     1.1860    -0.4089 
B    1.1229     2.5014    -0.5315 
C    2.5686    -1.1024     0.2080 
C    3.8747    -0.9412    -0.2252 
C    4.2728     0.2793    -0.7495 
C    3.3623     1.3208    -0.8365 
O    1.6324     3.5534    -1.3858 
O    0.7253     3.1385     0.7196 
C    0.8775     4.4753     0.5335 
C    0.5733     5.5003     1.3990 
C    0.8292     6.8062     0.9653 
C    1.3675     7.0527    -0.2874 
C    1.6741     6.0043    -1.1626 
C    1.4212     4.7240    -0.7286 
H    0.1571     5.2958     2.3763 
H    0.6036     7.6351     1.6229 
H    1.5569     8.0719    -0.5970 
H    2.0972     6.1839    -2.1417 
H    2.2690    -2.0632     0.6074 
H    4.5739    -1.7649    -0.1560 
H    5.2894     0.4174    -1.0958 
H    3.6742     2.2689    -1.2561 
C   -0.4893    -2.0241     0.1309 
H    0.2801    -2.7051     0.5001 
C   -0.0317    -0.3836     2.5189 
H   -1.0769    -0.5416     2.8036 
C   -1.8367    -2.4497     0.7116 
H   -2.1164    -3.4330     0.3283 
H   -1.8146    -2.5102     1.8004 
H   -2.6220    -1.7450     0.4270 
C   -0.5051    -2.0818    -1.3954 
H    0.4507    -1.7738    -1.8210 
H   -0.7186    -3.0978    -1.7336 
H   -1.2820    -1.4258    -1.7959 
C    0.8147    -1.5175     3.0874 
H    0.7224    -1.5343     4.1757 
H    0.5125    -2.4976     2.7149 
H    1.8688    -1.3664     2.8495 
C    0.4191     0.9649     3.0771 
H    1.4410     1.1901     2.7650 
H   -0.2106     1.7815     2.7273 
H    0.3935     0.9402     4.1684 
C   -1.2632     3.0494    -1.4416 
H   -0.8166     3.7944    -2.0935 
H   -1.5377     3.4989    -0.4881 
H   -2.1282     2.5990    -1.9224 
O   -0.2742     2.0272    -1.2398 
H   -0.6249     1.2963    -0.6507 





















 
