48

P    0.2258    -0.1212     0.3326 
C    2.0738    -0.2077     0.3487 
C    2.8471     0.9678     0.2507 
B    2.3110     2.4260     0.1534 
C    2.7370    -1.4350     0.4104 
C    4.1211    -1.5198     0.3898 
C    4.8822    -0.3655     0.2970 
C    4.2434     0.8602     0.2240 
O    3.1163     3.4589    -0.3118 
O    1.0987     2.9247     0.6126 
C    1.1238     4.2647     0.3304 
C    0.1435     5.2069     0.5364 
C    0.4420     6.5132     0.1458 
C    1.6703     6.8362    -0.4190 
C    2.6572     5.8704    -0.6204 
C    2.3516     4.5862    -0.2341 
H   -0.8064     4.9424     0.9805 
H   -0.2986     7.2888     0.2867 
H    1.8669     7.8589    -0.7112 
H    3.6142     6.1100    -1.0620 
H    2.1703    -2.3539     0.4747 
H    4.6006    -2.4892     0.4433 
H    5.9628    -0.4202     0.2733 
H    4.8328     1.7643     0.1350 
C   -0.2522    -1.7522    -0.4217 
H    0.2336    -2.5810     0.0951 
C   -0.1856    -0.3757     2.1402 
H   -1.2801    -0.3615     2.1528 
C   -1.7640    -1.9333    -0.2877 
H   -2.0833    -2.8357    -0.8134 
H   -2.0756    -2.0263     0.7536 
H   -2.2967    -1.0852    -0.7255 
C    0.1669    -1.7729    -1.8904 
H    1.2400    -1.6199    -2.0115 
H   -0.0963    -2.7292    -2.3476 
H   -0.3473    -0.9856    -2.4461 
C    0.2975    -1.6819     2.7596 
H   -0.0344    -1.7442     3.7989 
H   -0.0862    -2.5606     2.2394 
H    1.3881    -1.7306     2.7601 
C    0.3091     0.8207     2.9512 
H    1.4004     0.8759     2.9299 
H   -0.0783     1.7609     2.5620 
H    0.0015     0.7183     3.9941 
C   -0.0743     2.1333    -2.0285 
O    1.0979     2.2820    -2.2382 
H   -0.5784     2.6044    -1.1719 
H   -0.7038     1.5214    -2.6977 


























 
