46

P    0.1360    -0.0690     0.0195 
C    1.9042     0.1495    -0.1252 
C    2.4008     1.2802    -0.7815 
B    1.4083     2.4023    -1.4349 
C    2.7350    -0.7954     0.4862 
C    4.1057    -0.6274     0.4354 
C    4.6310     0.4818    -0.2233 
C    3.7926     1.4117    -0.8161 
O    2.0951     3.7165    -1.5090 
O    0.2808     2.6347    -0.4285 
C    0.5746     3.8109     0.1733 
C   -0.0547     4.3896     1.2522 
C    0.4151     5.6313     1.7025 
C    1.4777     6.2534     1.0719 
C    2.1118     5.6644    -0.0294 
C    1.6518     4.4418    -0.4691 
H   -0.8977     3.9034     1.7289 
H   -0.0634     6.1063     2.5488 
H    1.8258     7.2130     1.4313 
H    2.9383     6.1483    -0.5324 
H    2.3200    -1.6574     0.9993 
H    4.7600    -1.3492     0.9061 
H    5.7047     0.6200    -0.2614 
H    4.2081     2.2839    -1.3066 
C   -0.2633    -1.8395    -0.2359 
H    0.0367    -2.3874     0.6613 
C   -0.5222     0.6291     1.5988 
H   -1.0878     1.4959     1.2549 
C   -1.7634    -2.0297    -0.4801 
H   -1.9636    -3.0861    -0.6625 
H   -2.3815    -1.7148     0.3552 
H   -2.0762    -1.4773    -1.3684 
C    0.5185    -2.3616    -1.4473 
H    1.5939    -2.3517    -1.2902 
H    0.2048    -3.3848    -1.6577 
H    0.3028    -1.7580    -2.3322 
C   -1.4307    -0.3114     2.3913 
H   -1.6019     0.1270     3.3750 
H   -2.4037    -0.4462     1.9248 
H   -0.9770    -1.2918     2.5486 
C    0.6375     1.1300     2.4636 
H    1.2518     0.3009     2.8210 
H    1.2733     1.8288     1.9231 
H    0.2232     1.6471     3.3297 
H   -0.5028     0.5452    -1.0553 
H    0.9650     2.0250    -2.5012 
















 
