68

C    10.6123     6.1754     5.3526 
C     9.7565     5.6982     4.1245 
H     8.7417     5.5399     4.5036 
C     9.7484     6.9517     3.2029 
H    10.3872     6.7819     2.3283 
C    10.4603     8.0231     4.0611 
H    10.7895     8.8901     3.4879 
C     9.5363     8.3572     5.2490 
H     8.5071     8.5324     4.9272 
H     9.8596     9.2592     5.7672 
C     9.6686     7.1002     6.1492 
H     8.7098     6.6183     6.3434 
H    10.1051     7.3477     7.1174 
C    11.5933     7.2074     4.7240 
C    11.2313     5.0694     6.1784 
H    11.7849     4.3731     5.5471 
H    10.4680     4.5061     6.7202 
H    11.9107     5.4867     6.9246 
C    12.5957     6.5962     3.7451 
H    12.1708     5.8158     3.1202 
H    13.4202     6.1403     4.2970 
H    13.0197     7.3722     3.1021 
C    12.3982     8.0263     5.7348 
H    13.0865     7.3828     6.2859 
H    11.7865     8.5582     6.4602 
H    13.0028     8.7662     5.2048 
N    10.1839     4.4195     3.5294 
C     9.3658     3.3324     4.0557 
H     8.3421     3.4099     3.6317 
H     9.2681     3.4549     5.1340 
C     9.9495     1.9647     3.7384 
H     9.2913     1.1870     4.1348 
H    10.9095     1.8711     4.2539 
C    10.1501     1.7985     2.2372 
H     9.1739     1.7617     1.7438 
H    10.6569     0.8580     2.0153 
C    10.9393     2.9823     1.6945 
H    11.9531     2.9738     2.1053 
H    11.0209     2.9275     0.6073 
C    10.2788     4.3014     2.0796 
H    10.8785     5.1101     1.6682 
H     9.2849     4.3536     1.6004 
B     8.3941     7.3589     2.5438 
C     7.1958     6.3242     2.4897 
F     7.6691     5.8459     0.2411 
C     6.9439     5.6010     1.3380 
F     5.7922     3.9105     0.1639 
C     5.9875     4.6012     1.2765 
F     4.3022     3.3824     2.3676 
C     5.2279     4.3316     2.4026 
F     4.6915     4.8033     4.6380 
C     5.4321     5.0519     3.5694 
F     6.5909     6.7123     4.7237 
C     6.4123     6.0267     3.5906 
C     8.2066     8.7517     1.8411 
F    10.4218     8.8088     1.0124 
C     9.2278     9.3864     1.1379 
F    10.0517    11.1645    -0.1694 
C     9.0592    10.6049     0.5072 
F     7.6605    12.4152     0.0007 
C     7.8336    11.2453     0.5873 
F     5.6224    11.2771     1.3678 
C     6.7907    10.6582     1.2837 
F     5.9618     8.9128     2.5553 
C     6.9899     9.4286     1.8841 
O     6.6389     1.3721     2.4268 
O     6.1196     1.9417     4.6044 
C     6.3788     1.6547     3.5164 






































 
