70

C       10.703863000      6.308182000      5.877240000
C        9.715704000      5.641198000      4.848924000
H        8.765701000      5.491922000      5.376299000
C        9.526322000      6.756592000      3.777751000
H       10.094386000      6.509182000      2.872865000
C       10.266879000      7.964335000      4.404580000
H       10.464652000      8.768219000      3.698908000
C        9.499394000      8.410569000      5.662520000
H        8.430216000      8.508308000      5.472796000
H        9.847394000      9.382139000      6.011860000
C        9.826032000      7.288452000      6.681774000
H        8.933619000      6.795506000      7.068746000
H       10.375642000      7.675764000      7.540447000
C       11.526163000      7.287164000      4.988805000
C       11.514406000      5.365434000      6.741495000
H       11.990217000      4.589287000      6.139879000
H       10.895171000      4.884285000      7.501311000
H       12.291292000      5.920431000      7.271555000
C       12.418417000      6.595812000      3.956119000
H       11.953411000      5.732760000      3.486277000
H       13.330431000      6.236963000      4.437951000
H       12.713192000      7.304805000      3.177860000
C       12.414470000      8.264684000      5.760993000
H       13.224738000      7.733543000      6.263796000
H       11.883331000      8.847614000      6.510226000
H       12.875174000      8.965545000      5.060662000
N       10.148125000      4.318518000      4.365675000
C        9.610154000      3.271824000      5.230012000
H        8.518281000      3.176276000      5.064944000
H        9.744676000      3.568840000      6.267913000
C       10.278456000      1.929197000      4.980096000
H        9.844456000      1.177759000      5.642517000
H       11.339872000      2.016347000      5.228831000
C       10.122254000      1.524193000      3.519778000
H        9.065086000      1.323002000      3.314114000
H       10.669048000      0.604037000      3.307769000
C       10.600147000      2.657376000      2.620886000
H       11.677605000      2.797580000      2.746889000
H       10.416724000      2.424907000      1.569901000
C        9.908709000      3.970905000      2.973502000
H       10.289294000      4.748850000      2.315650000
H        8.823074000      3.868803000      2.767675000
B        8.105000000      6.994102000      3.172059000
C        6.915650000      5.988458000      3.503831000
F        6.910814000      5.098787000      1.320485000
C        6.414542000      5.100136000      2.570389000
F        5.002470000      3.330566000      1.919593000
C        5.424580000      4.176046000      2.850495000
F        3.920366000      3.274640000      4.410267000
C        4.874342000      4.143590000      4.119722000
F        4.793768000      5.017428000      6.294884000
C        5.326083000      5.031404000      5.081496000
F        6.718357000      6.781221000      5.708223000
C        6.330348000      5.925890000      4.758122000
C        7.812130000      8.159822000      2.159370000
F       10.074650000      8.402036000      1.476651000
C        8.801045000      8.752601000      1.368239000
F        9.493062000     10.241883000     -0.319356000
C        8.524124000      9.722146000      0.421197000
F        6.948947000     11.095417000     -0.638763000
C        7.222958000     10.160495000      0.252132000
F        4.964573000     10.052134000      0.876629000
C        6.210015000      9.621975000      1.026390000
F        5.495142000      8.177444000      2.669056000
C        6.516857000      8.640555000      1.949096000
C        9.655401000      5.067607000     -0.468978000
O        9.526775000      6.044953000      0.210253000
O        9.007632000      3.921042000     -0.288540000
H       10.331349000      4.996725000     -1.328735000
H        8.391410000      4.036186000      0.455364000































































