69

C   10.5749     6.0293     5.2776 
C    9.7587     5.1677     4.2452 
H    8.8987     4.7992     4.7910 
C    9.2661     6.2416     3.2043 
H    9.9618     6.2103     2.3599 
C    9.6236     7.5693     3.9317 
H    9.5610     8.4457     3.2850 
C    8.7775     7.6770     5.2137 
H    7.7292     7.4471     5.0306 
H    8.8124     8.6864     5.6231 
C    9.4638     6.6550     6.1592 
H    8.7814     5.8958     6.5345 
H    9.8995     7.1426     7.0306 
C   11.0388     7.2970     4.4891 
C   11.5994     5.2738     6.0964 
H   12.4357     4.9049     5.5019 
H   11.1369     4.4087     6.5760 
H   12.0041     5.9176     6.8806 
C   12.1129     7.1298     3.4121 
H   11.8433     6.4728     2.5917 
H   13.0421     6.7555     3.8502 
H   12.3359     8.1076     2.9791 
C   11.5690     8.4212     5.3910 
H   12.5393     8.1405     5.8077 
H   10.9174     8.6836     6.2188 
H   11.7216     9.3243     4.7962 
N   10.3835     3.9272     3.7940 
C    9.4781     2.8930     3.3520 
H    9.2235     2.9891     2.2731 
H    8.5381     2.9837     3.8992 
C   10.0808     1.5045     3.5329 
H    9.3799     0.7491     3.1718 
H   10.2389     1.3322     4.6003 
C   11.4093     1.4150     2.7911 
H   11.2244     1.4954     1.7132 
H   11.8849     0.4474     2.9580 
C   12.3257     2.5515     3.2283 
H   12.5915     2.4226     4.2812 
H   13.2511     2.5485     2.6490 
C   11.6372     3.9060     3.0763 
H   12.2879     4.6816     3.4619 
H   11.5111     4.1071     1.9924 
B    7.8132     6.2443     2.4731 
C    6.3670     5.7270     3.0535 
F    5.4574     6.1322     0.8975 
C    5.2919     5.7171     2.1590 
F    3.0438     5.3302     1.5724 
C    4.0118     5.3104     2.4813 
F    2.5192     4.4877     4.1010 
C    3.7384     4.8824     3.7679 
F    4.5220     4.4670     5.9368 
C    4.7587     4.8739     4.6946 
F    6.9326     5.2418     5.3113 
C    6.0312     5.2879     4.3247 
C    7.6515     7.6695     1.6887 
F    9.3386     7.1505     0.1010 
C    8.4317     8.0192     0.5970 
F    9.1376     9.5025    -1.0946 
C    8.3662     9.2428    -0.0449 
F    7.4132    11.3869    -0.1659 
C    7.4915    10.2041     0.4259 
F    5.8741    10.8368     1.9988 
C    6.7069     9.9175     1.5276 
F    6.0246     8.4871     3.2043 
C    6.8015     8.6743     2.1316 
C    8.8417     4.6187     0.6920 
O    7.8715     5.1380     1.2026 
H    9.8580     4.8657     0.9971 
H    8.6779     3.8917    -0.1069 








































 
