68

C    10.9554     6.0472     5.3327 
C    10.0893     5.3594     4.2098 
H     9.1205     5.1296     4.6615 
C     9.9103     6.4968     3.1528 
H    10.6433     6.3081     2.3682 
C    10.4956     7.7205     3.8930 
H    10.6985     8.5681     3.2369 
C     9.6230     8.0702     5.1099 
H     8.5658     8.1019     4.8556 
H     9.8806     9.0495     5.5127 
C     9.9632     6.9347     6.1107 
H     9.0856     6.3697     6.4245 
H    10.4336     7.3254     7.0141 
C    11.7638     7.1165     4.5446 
C    11.7707     5.1255     6.2157 
H    12.3323     4.4039     5.6200 
H    11.1381     4.5777     6.9171 
H    12.4753     5.7072     6.8141 
C    12.7849     6.5241     3.5680 
H    12.4518     5.6032     3.0951 
H    13.7070     6.2850     4.1019 
H    13.0376     7.2539     2.7930 
C    12.5198     8.1271     5.4102 
H    13.3170     7.6349     5.9705 
H    11.8921     8.6586     6.1216 
H    12.9935     8.8717     4.7654 
N    10.6396     4.0794     3.7217 
C    10.0993     2.9788     4.5152 
H     9.0251     2.8411     4.2798 
H    10.1569     3.2438     5.5689 
C    10.8405     1.6756     4.2631 
H    10.4052     0.8844     4.8767 
H    11.8820     1.7998     4.5728 
C    10.7810     1.3139     2.7845 
H     9.7456     1.0799     2.5138 
H    11.3760     0.4237     2.5737 
C    11.2613     2.4965     1.9534 
H    12.3242     2.6706     2.1446 
H    11.1466     2.2935     0.8864 
C    10.4994     3.7700     2.3061 
H    10.9006     4.5819     1.7045 
H     9.4371     3.6470     2.0207 
B     8.5057     6.6250     2.3185 
C     7.3232     5.5342     2.6179 
F     7.0907     4.6728     0.3971 
C     6.7553     4.6489     1.7134 
F     5.3248     2.8799     1.1044 
C     5.8050     3.6941     2.0361 
F     4.4433     2.7030     3.6722 
C     5.3523     3.6041     3.3365 
F     5.4107     4.4370     5.5274 
C     5.8514     4.4862     4.2781 
F     7.1922     6.2682     4.8527 
C     6.7986     5.4196     3.9013 
C     7.9837     8.1672     2.1212 
F     9.9730     8.6673     0.9308 
C     8.7967     9.0846     1.4676 
F     9.3339    11.2280     0.6467 
C     8.4996    10.4203     1.2881 
F     6.9851    12.1818     1.6344 
C     7.3040    10.9069     1.7872 
F     5.2887    10.4917     2.9025 
C     6.4437    10.0404     2.4336 
F     5.8841     7.9467     3.2043 
C     6.7878     8.7038     2.5811 
O     9.0164     6.2158     0.7867 
H     8.3217     5.9569     0.1630 
H     9.5823     6.9140     0.4227 





























 
