100

P    0.9983    13.6127     2.7493 
B    2.5698    11.0520     1.8732 
C    1.6503    13.5070     1.0641 
C    2.1018    12.1191     0.7164 
C    2.0426    11.7961    -0.5780 
H    2.2923    10.7883    -0.8931 
C    1.6546    12.7615    -1.6694 
H    0.5610    12.7280    -1.7948 
C    2.0337    14.1920    -1.2637 
H    3.1346    14.2464    -1.2490 
C    1.5694    14.4896     0.1528 
C    1.1313    15.9100     0.3876 
H    1.1033    16.1592     1.4461 
H    0.1045    16.0382     0.0215 
C   -0.4141    14.7545     2.9412 
C   -1.5922    14.4718     2.2154 
C   -2.7054    15.2864     2.3900 
H   -3.6014    15.0632     1.8220 
C   -2.7061    16.3669     3.2566 
C   -1.5294    16.6485     3.9340 
H   -1.4954    17.5113     4.5890 
C   -0.3784    15.8810     3.7942 
C   -1.7511    13.3323     1.2380 
H   -2.5692    13.5556     0.5557 
H   -2.0071    12.4063     1.7550 
H   -0.8588    13.1536     0.6402 
C   -3.9374    17.2006     3.4606 
H   -3.6805    18.2332     3.6943 
H   -4.5245    16.8090     4.2942 
H   -4.5721    17.1905     2.5755 
C    0.8354    16.3645     4.5488 
H    0.6299    17.3514     4.9583 
H    1.7132    16.4461     3.9092 
H    1.1020    15.7055     5.3745 
C    2.3091    13.8199     3.9951 
C    2.1172    13.2452     5.2633 
C    3.1667    13.2511     6.1768 
H    3.0137    12.7831     7.1425 
C    4.3910    13.8273     5.8882 
C    4.5356    14.4523     4.6558 
H    5.4770    14.9381     4.4222 
C    3.5316    14.4636     3.6995 
C    0.8277    12.6250     5.7320 
H   -0.0544    13.1119     5.3136 
H    0.7614    12.7049     6.8157 
H    0.8087    11.5651     5.4719 
C    5.5294    13.8002     6.8649 
H    6.4287    13.4010     6.3929 
H    5.2951    13.1810     7.7287 
H    5.7616    14.8085     7.2130 
C    3.8299    15.2141     2.4282 
H    4.7445    15.7904     2.5575 
H    3.0345    15.9128     2.1719 
H    3.9699    14.5512     1.5758 
C    2.5661     9.5168     1.2690 
F    0.2600     9.2154     1.7493 
C    1.4234     8.7284     1.2897 
F    0.2484     6.7205     0.8774 
C    1.3767     7.4258     0.8221 
F    2.4897     5.6102    -0.1774 
C    2.5136     6.8572     0.2795 
F    4.7653     7.0833    -0.3385 
C    3.6699     7.6093     0.2037 
F    4.8177     9.5825     0.5337 
C    3.6689     8.9086     0.6861 
C    4.0627    11.4093     2.4981 
F    4.8540    12.6122     0.6077 
C    5.0434    12.1509     1.8561 
F    7.1447    13.2289     1.7637 
C    6.2638    12.4758     2.4230 
F    7.7162    12.3533     4.2731 
C    6.5610    12.0285     3.6955 
F    5.8992    10.8373     5.6047 
C    5.6315    11.2625     4.3696 
F    3.5949    10.1971     4.4820 
C    4.4189    10.9666     3.7666 
C    2.2830    12.3879    -2.9932 
C    1.5285    12.3290    -4.1599 
H    0.4642    12.5316    -4.1151 
C    2.1213    12.0138    -5.3759 
H    1.5181    11.9696    -6.2737 
C    3.4817    11.7509    -5.4376 
H    3.9456    11.5007    -6.3827 
C    4.2436    11.8012    -4.2772 
H    5.3040    11.5870    -4.3150 
C    3.6486    12.1157    -3.0647 
H    4.2450    12.1380    -2.1586 
C    1.4982    15.2356    -2.2414 
H    0.4044    15.1802    -2.2295 
H    1.8072    14.9809    -3.2551 
C    1.9575    16.6549    -1.8898 
H    1.2583    17.3741    -2.3197 
H    2.9273    16.8523    -2.3488 
C    2.0609    16.8635    -0.3700 
H    1.8288    17.8955    -0.1064 
H    3.0859    16.6792    -0.0389 
C    0.4691    11.8254     2.8565 
O    1.6234    11.1165     3.0377 
H   -0.2463    11.6635     3.6601 
H   -0.0206    11.6052     1.9073 




















 
