99

P     0.9818    13.5547     3.0518 
B     2.2631    10.7904     1.9704 
C     1.7327    13.3967     1.3802 
C     1.9522    11.9803     0.9233 
C     1.8098    11.7314    -0.3806 
H     1.8964    10.7173    -0.7567 
C     1.5377    12.8038    -1.4028 
H     0.4517    12.9798    -1.4490 
C     2.1986    14.1103    -0.9444 
H     3.2887    13.9499    -0.9644 
C     1.8193    14.4084     0.4980 
C     1.6436    15.8655     0.8148 
H     1.6839    16.0330     1.8866 
H     0.6498    16.1978     0.4897 
C    -0.4046    14.7490     2.9217 
C    -1.5025    14.2939     2.1569 
C    -2.6128    15.1128     1.9994 
H    -3.4418    14.7562     1.3976 
C    -2.6977    16.3628     2.5969 
C    -1.6242    16.7827     3.3648 
H    -1.6678    17.7564     3.8402 
C    -0.4777    16.0098     3.5424 
C    -1.5393    12.9331     1.5091 
H    -2.4662    12.8096     0.9519 
H    -1.4937    12.1412     2.2601 
H    -0.7069    12.7697     0.8234 
C    -3.9257    17.2135     2.4364 
H    -3.7194    18.2547     2.6806 
H    -4.7221    16.8665     3.0983 
H    -4.3051    17.1666     1.4155 
C     0.6120    16.6077     4.3954 
H     0.3765    17.6484     4.6111 
H     1.5855    16.5779     3.9086 
H     0.7212    16.0829     5.3457 
C     2.0954    13.9811     4.4475 
C     1.6101    13.5419     5.7031 
C     2.3966    13.6942     6.8353 
H     2.0134    13.3473     7.7887 
C     3.6649    14.2614     6.7802 
C     4.1121    14.7136     5.5509 
H     5.0957    15.1671     5.4821 
C     3.3580    14.5903     4.3833 
C     0.2444    12.9244     5.8787 
H    -0.5441    13.5346     5.4333 
H     0.0233    12.8067     6.9379 
H     0.1892    11.9364     5.4161 
C     4.5270    14.3401     8.0070 
H     4.9478    13.3578     8.2336 
H     3.9493    14.6596     8.8747 
H     5.3549    15.0330     7.8648 
C     3.9564    15.1771     3.1334 
H     5.0412    15.2215     3.2226 
H     3.6050    16.2029     2.9876 
H     3.7118    14.6132     2.2388 
C     2.5959     9.3229     1.3339 
F     0.9554     8.1133     2.5658 
C     1.9458     8.1392     1.6538 
F     1.5930     5.8165     1.4510 
C     2.2633     6.9088     1.1004 
F     3.6126     5.6539    -0.3573 
C     3.2923     6.8205     0.1839 
F     4.9966     7.8958    -1.0177 
C     3.9930     7.9652    -0.1505 
F     4.3854    10.2264     0.0882 
C     3.6431     9.1705     0.4313 
C     3.4349    11.1945     3.0483 
F     4.6714    12.4772     1.4779 
C     4.5332    11.9772     2.7083 
F     6.5428    13.0952     3.2404 
C     5.5280    12.3186     3.6099 
F     6.3499    12.2760     5.8103 
C     5.4373    11.9021     4.9233 
F     4.2531    10.7323     6.5781 
C     4.3636    11.1255     5.3137 
F     2.4123     9.9859     4.8148 
C     3.4151    10.7774     4.3706 
C     2.0040    12.3972    -2.7815 
C     1.1837    12.5479    -3.8944 
H     0.1829    12.9449    -3.7661 
C     1.6312    12.1979    -5.1618 
H     0.9781    12.3208    -6.0164 
C     2.9103    11.6887    -5.3310 
H     3.2602    11.4116    -6.3169 
C     3.7369    11.5300    -4.2260 
H     4.7338    11.1262    -4.3479 
C     3.2866    11.8806    -2.9620 
H     3.9317    11.7437    -2.1008 
C     1.8543    15.2896    -1.8513 
H     0.7701    15.4392    -1.8143 
H     2.0964    15.0431    -2.8853 
C     2.5763    16.5752    -1.4323 
H     2.0242    17.4350    -1.8156 
H     3.5640    16.6093    -1.8950 
C     2.7222    16.6791     0.0956 
H     2.6792    17.7208     0.4156 
H     3.6996    16.2984     0.4030 
O     0.8898    10.6473     2.7469 
H     0.9062    10.0116     3.4770 
H     0.6655    11.6055     3.0846 


















 
