98

P     0.9214    13.4390     2.9245 
B     2.7321    10.9673     2.0672 
C     1.7735    13.4072     1.3466 
C     2.2269    12.0437     0.9486 
C     2.2023    11.8018    -0.3658 
H     2.4821    10.8209    -0.7380 
C     1.8398    12.8509    -1.3910 
H     0.7431    12.9088    -1.4753 
C     2.3331    14.2182    -0.8940 
H     3.4322    14.1649    -0.8292 
C     1.8121    14.4604     0.5127 
C     1.4579    15.8870     0.8288 
H     1.3924    16.0585     1.9004 
H     0.4681    16.1242     0.4197 
C    -0.5108    14.5473     2.9278 
C    -1.5936    14.1327     2.1251 
C    -2.7325    14.9277     2.0835 
H    -3.5623    14.6147     1.4599 
C    -2.8370    16.1035     2.8132 
C    -1.7579    16.4851     3.5997 
H    -1.8207    17.4053     4.1693 
C    -0.5915    15.7334     3.6784 
C    -1.5883    12.8524     1.3279 
H    -2.4399    12.8336     0.6513 
H    -1.6696    11.9801     1.9817 
H    -0.6820    12.7224     0.7346 
C    -4.0921    16.9271     2.7746 
H    -3.8778    17.9813     2.9455 
H    -4.7836    16.5989     3.5536 
H    -4.6011    16.8255     1.8170 
C     0.5136    16.2503     4.5635 
H     0.2901    17.2704     4.8697 
H     1.4828    16.2569     4.0649 
H     0.6266    15.6419     5.4622 
C     1.8919    13.4963     4.4351 
C     1.3161    12.8754     5.5590 
C     2.0288    12.8654     6.7492 
H     1.5920    12.3820     7.6154 
C     3.2924    13.4315     6.8509 
C     3.8322    14.0435     5.7268 
H     4.8215    14.4830     5.7916 
C     3.1633    14.0884     4.5111 
C    -0.0216    12.1854     5.5121 
H    -0.8030    12.8136     5.0782 
H    -0.3360    11.9091     6.5161 
H     0.0440    11.2679     4.9194 
C     4.0829    13.3399     8.1221 
H     4.7643    12.4881     8.0658 
H     3.4341    13.1982     8.9852 
H     4.6861    14.2338     8.2777 
C     3.8558    14.7483     3.3490 
H     4.7666    15.2359     3.6918 
H     3.2353    15.5031     2.8644 
H     4.1289    14.0143     2.5885 
C     2.4653     9.4511     1.5414 
F     0.1523     9.8377     1.8471 
C     1.1500     9.0108     1.4770 
F    -0.5070     7.3881     1.0151 
C     0.7748     7.7518     1.0505 
F     1.4212     5.6376     0.2425 
C     1.7546     6.8562     0.6564 
F     4.0269     6.3903     0.3178 
C     3.0792     7.2441     0.6981 
F     4.7112     8.8222     1.1353 
C     3.4064     8.5216     1.1326 
C     4.2666    11.3009     2.5337 
F     5.1030    11.6351     0.3445 
C     5.2876    11.6783     1.6699 
F     7.4663    12.4750     1.2111 
C     6.5330    12.1133     2.0899 
F     7.9972    12.5911     3.8722 
C     6.8108    12.1699     3.4445 
F     6.1003    11.8142     5.6544 
C     5.8432    11.7694     4.3449 
F     3.7381    10.9595     4.8193 
C     4.6121    11.3360     3.8773 
C     2.3922    12.5306    -2.7599 
C     1.5850    12.5848    -3.8912 
H     0.5354    12.8345    -3.7833 
C     2.1062    12.3226    -5.1517 
H     1.4620    12.3659    -6.0207 
C     3.4477    12.0012    -5.2951 
H     3.8562    11.7928    -6.2753 
C     4.2619    11.9400    -4.1713 
H     5.3079    11.6807    -4.2730 
C     3.7381    12.2009    -2.9139 
H     4.3751    12.1373    -2.0388 
C     1.9426    15.3694    -1.8169 
H     0.8494    15.4079    -1.8698 
H     2.2913    15.1635    -2.8286 
C     2.4954    16.7143    -1.3308 
H     1.8940    17.5216    -1.7520 
H     3.5092    16.8529    -1.7094 
C     2.5069    16.8123     0.2043 
H     2.3347    17.8396     0.5258 
H     3.4883    16.5239     0.5898 
H     0.3247    12.1864     2.9460 
H     2.0656    11.0780     3.0740 












 
