86

P    7.1669    11.6384     0.1942 
F    2.7804    13.6401    -1.3346 
F    0.3373    12.7029    -0.6368 
F    0.5184    10.0876     0.5909 
F    2.9971    13.1948    -3.9348 
F    2.8546    13.1049     3.3541 
F    2.9556     8.9807    -0.5556 
F    4.4188    10.5529     3.2244 
C    2.7791    11.3381    -0.7909 
F    3.6013     8.5823     4.7552 
C    2.8230    12.3591    -1.7337 
F   -1.3578    14.4896     0.2794 
C    1.7457    12.8432     1.2724 
F   -1.0018    15.6407     2.7103 
C    2.5136    10.4220     1.7956 
C    7.9583     9.9337     0.0538 
F   -0.2826     8.0952     2.1655 
C    4.4000    12.3002     0.9922 
C    5.4227    11.2610     0.5165 
F    1.2463     7.3113     4.2693 
F    3.1359     8.5706    -3.1499 
C    7.8949    12.6238     1.6098 
C    3.2393     9.9848     2.8897 
C    1.3135     9.7420     1.6091 
B    2.8590    11.7078     0.8197 
C    7.2678    12.5563    -1.4441 
C    1.6474     8.3033     3.4837 
F    1.1442    14.9143     4.2269 
C    1.8454    13.4439     2.5196 
F    3.1655    10.6553    -4.8941 
C   -0.1318    14.7465     2.2580 
C    3.0162     9.8172    -2.6995 
C    0.6154    13.2280     0.5598 
C    2.8961    10.0686    -1.3388 
C    2.9446    12.1618    -3.0974 
C   -0.3048    14.1587     1.0199 
C    0.8714     8.7072     2.4098 
C    2.8410     8.9502     3.7247 
C    0.9587    14.3781     3.0218 
C    7.4048    14.0791     1.5296 
H    7.7253    14.5821     2.4427 
H    6.3191    14.1462     1.5049 
H    7.8291    14.6148     0.6833 
C    7.3954    12.0529     2.9500 
H    7.6648    12.7732     3.7239 
H    7.8536    11.1032     3.2044 
H    6.3139    11.9493     2.9840 
C    3.0369    10.8721    -3.5902 
C    6.2140    13.6760    -1.5111 
H    6.3834    14.2203    -2.4429 
H    6.2625    14.3902    -0.6964 
H    5.2082    13.2653    -1.5551 
C    8.6565    13.1626    -1.6859 
H    8.6692    13.5684    -2.6997 
H    9.4625    12.4348    -1.6129 
H    8.8684    13.9859    -1.0068 
C    7.0298     8.9656    -0.7073 
H    7.5709     8.0235    -0.8165 
H    6.7526     9.2979    -1.7021 
H    6.1184     8.7530    -0.1500 
C    6.9239    11.6173    -2.6128 
H    6.8707    12.2326    -3.5133 
H    5.9440    11.1514    -2.4901 
H    7.6707    10.8475    -2.7875 
C    9.4290    12.6248     1.6131 
H    9.7524    13.2770     2.4274 
H    9.8588    13.0133     0.6914 
H    9.8477    11.6389     1.8044 
C    8.1464     9.3155     1.4491 
H    8.4341     8.2724     1.3039 
H    7.2299     9.3217     2.0397 
H    8.9388     9.7941     2.0184 
C    9.3269     9.9722    -0.6385 
H    9.7645     8.9739    -0.5700 
H   10.0186    10.6668    -0.1640 
H    9.2564    10.2218    -1.6947 
H    4.4611    13.2116     0.3981 
H    5.4460    10.4284     1.2234 
H    4.6179    12.5811     2.0193 
H    5.1040    10.8292    -0.4362 
O    5.4018    14.2587     4.0816 
H    4.5379    14.3010     3.6594 
C    5.2641    13.4567     5.2413 
H    4.9764    12.4311     4.9931 
H    6.2329    13.4405     5.7392 
H    4.5268    13.8722     5.9322 
































 
