85

P        7.694749000     11.377524000      0.247331000
F        3.882393000     14.532991000     -0.724804000
F        1.280075000     14.021240000     -0.233868000
F        0.853992000     11.179129000      0.308734000
F        4.115429000     14.700693000     -3.356381000
F        3.596306000     12.747839000      3.693111000
F        3.048754000      9.897016000     -1.127492000
F        4.674829000     10.141818000      2.896899000
C        3.376773000     12.222321000     -0.769031000
F        3.372718000      8.134452000      3.982174000
C        3.672698000     13.410110000     -1.429074000
F       -0.120787000     15.744440000      1.178929000
C        2.582086000     13.333241000      1.631615000
F        0.280233000     16.015845000      3.848985000
C        2.832452000     10.772216000      1.515329000
C        8.152307000      9.631062000     -0.293822000
F       -0.440965000      9.146922000      1.445219000
C        5.080797000     12.374256000      1.181161000
C        5.898705000     11.295262000      0.463841000
F        0.789537000      7.611272000      3.314297000
F        3.251493000     10.104856000     -3.744754000
C        8.523779000     11.834226000      1.865166000
C        3.406141000      9.950132000      2.469947000
C        1.517202000     10.442817000      1.204544000
B        3.463833000     12.160358000      0.880714000
C        8.061607000     12.619506000     -1.114997000
C        1.449793000      8.603663000      2.719500000
F        2.156661000     14.467435000      5.079688000
C        2.723321000     13.509230000      3.001120000
F        3.792189000     12.497301000     -4.916912000
C        1.014801000     15.162561000      3.144468000
C        3.375385000     11.199476000     -2.997505000
C        1.580921000     14.113747000      1.066376000
C        3.251141000     11.130290000     -1.615616000
C        3.811040000     13.530136000     -2.800182000
C        0.814611000     15.018143000      1.785249000
C        0.821815000      9.394543000      1.774099000
C        2.755094000      8.879745000      3.066923000
C        1.978520000     14.390232000      3.760274000
C        8.341366000     13.336425000      2.139387000
H        8.738611000     13.533150000      3.136945000
H        7.292730000     13.630265000      2.137452000
H        8.893136000     13.962332000      1.442225000
C        7.846436000     11.087246000      3.029262000
H        8.251969000     11.500376000      3.955065000
H        8.053198000     10.022725000      3.035078000
H        6.768915000     11.231250000      3.049466000
C        3.654462000     12.410635000     -3.598458000
C        7.247254000     13.909923000     -0.912316000
H        7.567672000     14.615384000     -1.682169000
H        7.386804000     14.386763000      0.051667000
H        6.184975000     13.730474000     -1.059606000
C        9.552472000     12.973023000     -1.195364000
H        9.698144000     13.597973000     -2.078985000
H       10.195414000     12.100955000     -1.299634000
H        9.885882000     13.550024000     -0.335165000
C        7.096567000      9.079746000     -1.273915000
H        7.445366000      8.097530000     -1.599239000
H        6.951960000      9.683808000     -2.163269000
H        6.129330000      8.937923000     -0.793767000
C        7.605197000     12.073861000     -2.478818000
H        7.718369000     12.884474000     -3.201575000
H        6.549133000     11.796823000     -2.477667000
H        8.199030000     11.235897000     -2.833703000
C       10.024444000     11.516402000      1.876770000
H       10.429980000     11.875804000      2.825262000
H       10.572094000     12.012121000      1.077169000
H       10.224683000     10.448534000      1.825422000
C        8.135816000      8.676108000      0.911253000
H        8.228497000      7.661191000      0.519818000
H        7.202396000      8.723815000      1.472726000
H        8.968913000      8.837632000      1.590381000
C        9.537937000      9.554315000     -0.948051000
H        9.765879000      8.500952000     -1.125065000
H       10.326814000      9.958094000     -0.315023000
H        9.575263000     10.058486000     -1.911061000
H        5.342314000     13.370126000      0.825730000
H        5.720882000     10.329198000      0.941256000
H        5.287480000     12.356432000      2.247041000
H        5.547676000     11.183793000     -0.566301000
C        1.337009000     11.044188000      5.011043000
O        0.651104000     11.504731000      4.147642000
O        1.090377000      9.891881000      5.643300000
H        2.252576000     11.506023000      5.396362000
H        0.284218000      9.507440000      5.263766000




































































