82

P     7.8632    11.4957     0.1460 
F     2.5906    14.1708    -1.0266 
F     0.5868    12.2730     0.3475 
F     1.0465     8.9232     0.8362 
F     2.1307    13.7915    -3.6434 
F     3.9933    13.4534     3.4174 
F     3.5513     9.5914    -0.5449 
F     4.3518     9.8884     4.0354 
C     3.0996    11.8995    -0.6902 
F     2.5092    11.1594     5.5479 
C     2.7200    12.9385    -1.5266 
F    -1.1948    13.4210     1.9203 
C     2.4056    12.8285     1.7677 
F    -0.4326    14.5691     4.2473 
C     2.7408     9.3719     2.4052 
C     8.0819     9.7384    -0.6814 
F    -0.7886    10.1805     2.3624 
C     4.9657    11.9660     1.2825 
C     5.9276    11.1828     0.3770 
F    -0.0610    11.2772     4.7189 
F     3.0779     9.2213    -3.1513 
C     8.2977    11.6836     2.0200 
C     3.0912     9.9415     3.6142 
C     1.4233     9.4522     1.9935 
B     3.4822    12.1715     0.8222 
C     7.6179    13.0623    -0.9816 
C     0.8409    10.6503     3.9790 
F     2.1753    14.5675     4.9696 
C     2.7339    13.4246     2.9884 
F     2.3668    11.3162    -4.7171 
C     0.4692    14.0234     3.4569 
C     2.9647    10.4337    -2.6276 
C     1.0432    12.8582     1.4527 
C     3.2103    10.6526    -1.2841 
C     2.4785    12.7674    -2.8773 
C     0.0840    13.4373     2.2629 
C     0.4669    10.0834     2.7719 
C     2.1578    10.5867     4.4061 
C     1.8033    14.0164     3.8243 
C     7.9089    13.0900     2.5016 
H     8.3353    13.2429     3.4976 
H     6.8332    13.2212     2.5909 
H     8.3062    13.8746     1.8572 
C     7.6349    10.6502     2.9398 
H     7.6840    11.0126     3.9707 
H     8.1558     9.6950     2.9096 
H     6.5893    10.4673     2.7119 
C     2.6002    11.5026    -3.4289 
C     6.4928    14.0191    -0.5808 
H     6.5140    14.8781    -1.2575 
H     6.5996    14.4017     0.4341 
H     5.5110    13.5601    -0.6883 
C     8.9315    13.8480    -1.0160 
H     8.8008    14.7394    -1.6350 
H     9.7423    13.2568    -1.4404 
H     9.2470    14.1735    -0.0234 
C     6.9915     9.3062    -1.6740 
H     7.2999     8.3563    -2.1202 
H     6.8568    10.0138    -2.4900 
H     6.0270     9.1352    -1.2009 
C     7.3147    12.6029    -2.4135 
H     7.2975    13.4812    -3.0662 
H     6.3377    12.1226    -2.4911 
H     8.0713    11.9220    -2.8031 
C     9.8137    11.5537     2.1871 
H    10.0586    11.5902     3.2522 
H    10.3470    12.3622     1.6861 
H    10.1910    10.6114     1.7861 
C     8.1553     8.6713     0.4177 
H     8.3028     7.6944    -0.0528 
H     7.2450     8.6142     1.0144 
H     8.9977     8.8387     1.0893 
C     9.4240     9.7142    -1.4189 
H     9.5638     8.7306    -1.8746 
H    10.2593     9.8956    -0.7431 
H     9.4770    10.4608    -2.2121 
H     5.2646    13.0179     1.3892 
H     5.8279    10.1292     0.6413 
H     5.0030    11.6124     2.3141 
H     5.5799    11.2465    -0.6553 
H     3.4811     8.8751     1.7946 
H     9.2823    11.6804    -0.1124 














 
