81

P    0.2788     7.9985    12.6615 
F   -0.0350     2.7918    14.2344 
F    0.4921     0.1769    14.2964 
F    3.0597    -0.7051    14.1320 
F    5.0771     1.0870    13.8950 
F    4.5904     3.6767    13.8191 
F    3.1730     4.9581    16.5432 
F    2.2098     5.5230    18.9648 
F   -0.4122     6.1370    19.2880 
F   -2.0604     6.1591    17.1276 
F   -1.1419     5.5733    14.7179 
F    1.1828     8.5877    16.9987 
F    3.6637     7.7927    17.4561 
F    5.5961     9.6026    18.0422 
F    4.9952    12.2362    18.1547 
F    2.5203    13.0701    17.6885 
F    0.6074    12.1887    19.7349 
F   -0.4653    14.3799    20.8278 
F   -1.9251    16.0766    19.3103 
F   -2.3159    15.5628    16.6831 
F   -1.2689    13.3716    15.5749 
C    2.0728     8.3351    12.8499 
H    2.5499     8.0730    11.9007 
H    2.2352     9.4042    13.0001 
C    2.7191     7.5286    13.9857 
H    3.6888     7.9923    14.1838 
H    2.1375     7.6577    14.9060 
C    2.9479     6.0285    13.7106 
H    3.8083     5.7408    14.3127 
H    3.2773     5.8976    12.6726 
C    2.2463     3.3749    14.0386 
C    1.2599     2.4049    14.1550 
C    1.4920     1.0445    14.1886 
C    2.7977     0.5936    14.1041 
C    3.8223     1.5124    13.9835 
C    3.5350     2.8701    13.9486 
C    1.0804     5.2645    15.5032 
C    1.8735     5.2560    16.6451 
C    1.3992     5.5350    17.9139 
C    0.0608     5.8437    18.0843 
C   -0.7733     5.8559    16.9838 
C   -0.2527     5.5573    15.7345 
C   -0.4714     8.7460    14.1709 
H   -1.5519     8.7786    14.0104 
H   -0.3157     7.9994    14.9542 
C    0.0545    10.0822    14.6834 
H   -0.0962    10.8720    13.9451 
H    1.1340     9.9999    14.8282 
C   -0.6275    10.5086    15.9989 
H   -0.8655     9.6041    16.5771 
H   -1.5849    10.9834    15.7884 
C    1.7191    10.8748    17.3156 
C    2.0893     9.5305    17.2683 
C    3.3733     9.0832    17.5121 
C    4.3618    10.0055    17.8141 
C    4.0490    11.3532    17.8730 
C    2.7493    11.7598    17.6323 
C   -0.3058    12.6723    17.6154 
C   -0.1131    12.9937    18.9555 
C   -0.6565    14.1199    19.5432 
C   -1.4078    14.9895    18.7687 
C   -1.6118    14.7206    17.4258 
C   -1.0699    13.5719    16.8790 
C   -0.2462     9.0115    11.1809 
C    0.5350    10.3152    11.0126 
H    0.4438    10.9682    11.8803 
H    0.1447    10.8572    10.1468 
H    1.5948    10.1301    10.8344 
C   -1.7402     9.3150    11.3021 
H   -2.3214     8.4118    11.5029 
H   -2.1011     9.7436    10.3639 
H   -1.9401    10.0364    12.0964 
C   -0.0067     8.1266     9.9518 
H    1.0404     7.8261     9.8692 
H   -0.2664     8.6792     9.0452 
H   -0.6168     7.2231     9.9886 
B    1.7955     4.9509    14.0588 
B    0.2621    11.3603    16.9683 
O    0.7009     5.0105    12.9067 
H    0.3777     5.9693    12.7292 
H   -0.0713     4.4628    13.1160 













