80

P   -0.5010     8.0924    13.6612 
F    0.0919     3.7849    15.6099 
F   -0.5077     1.2017    15.3472 
F    0.4746    -0.2285    13.2571 
F    2.0703     0.9866    11.4310 
F    2.6851     3.5554    11.6677 
F    4.3324     4.1945    14.0060 
F    6.1741     4.5092    15.9097 
F    5.6882     6.1324    18.0318 
F    3.3106     7.4352    18.2079 
F    1.4580     7.1332    16.3434 
F   -0.7171     9.6644    17.6680 
F    0.3711     8.0596    19.4677 
F    2.6743     8.7505    20.7061 
F    3.9052    11.0756    20.0886 
F    2.8567    12.7084    18.2860 
F    0.3880    13.9157    19.1979 
F    0.7663    16.5634    19.2139 
F    1.2926    17.8722    16.9072 
F    1.4271    16.5143    14.5697 
F    1.0316    13.8711    14.5301 
C    0.7660     8.3645    12.3943 
H    0.3673     7.9901    11.4486 
H    0.8480     9.4498    12.2991 
C    2.1443     7.7379    12.6735 
H    2.8251     8.2111    11.9614 
H    2.4821     8.0488    13.6692 
C    2.1878     6.2128    12.5386 
H    3.2143     5.9262    12.3003 
H    1.6033     5.9259    11.6558 
C    1.4157     3.8097    13.6513 
C    0.6077     3.1315    14.5552 
C    0.2789     1.7916    14.4482 
C    0.7760     1.0597    13.3851 
C    1.5878     1.6842    12.4573 
C    1.8891     3.0296    12.6067 
C    2.7934     5.6223    15.0771 
C    4.0323     4.9940    15.0352 
C    5.0084     5.1413    16.0057 
C    4.7666     5.9673    17.0898 
C    3.5549     6.6239    17.1735 
C    2.6096     6.4381    16.1789 
C   -1.1353     9.7005    14.2030 
H   -1.5416    10.2565    13.3557 
H   -1.9574     9.4994    14.8955 
C   -0.0287    10.4807    14.9237 
H    0.7142    10.8255    14.2004 
H    0.4972     9.8057    15.6025 
C   -0.5730    11.6885    15.6972 
H   -1.4766    11.3799    16.2392 
H   -0.8854    12.4674    15.0021 
C    1.0081    11.2829    17.8839 
C    0.4300    10.0582    18.2314 
C    0.9663     9.2024    19.1723 
C    2.1463     9.5523    19.8080 
C    2.7708    10.7472    19.4917 
C    2.1980    11.5828    18.5526 
C    0.6736    13.7870    16.8620 
C    0.6372    14.5253    18.0402 
C    0.8292    15.8932    18.0736 
C    1.0955    16.5673    16.8921 
C    1.1576    15.8713    15.6965 
C    0.9374    14.5064    15.7018 
C   -1.8851     6.9881    13.1662 
C   -2.9526     7.8396    12.4679 
H   -3.3954     8.5796    13.1350 
H   -3.7505     7.1776    12.1274 
H   -2.5540     8.3528    11.5893 
C   -2.4334     6.3725    14.4593 
H   -1.6895     5.7268    14.9296 
H   -3.3090     5.7680    14.2150 
H   -2.7459     7.1333    15.1784 
C   -1.4179     5.8813    12.2154 
H   -1.0621     6.2816    11.2655 
H   -2.2796     5.2455    12.0008 
H   -0.6359     5.2632    12.6521 
B    1.6958     5.4066    13.8746 
B    0.3880    12.2441    16.8138 
H    0.0901     7.5995    14.8157 
H    0.6384     5.8365    14.2819 












