83

P    1.2903     7.3259    13.5554 
F   -1.0164     5.3376    14.6184 
F   -2.9356     3.7951    13.5951 
F   -2.3842     2.1082    11.5307 
F    0.1387     1.9771    10.5505 
F    2.0779     3.4517    11.5930 
F    1.6961     2.7114    14.9503 
F    1.9845     1.9539    17.4621 
F    2.4029     3.7833    19.4243 
F    2.5349     6.4194    18.7811 
F    2.2508     7.2150    16.2833 
F    1.1890     9.3996    18.3210 
F    3.3638     9.4706    19.8369 
F    4.8449    11.7266    19.9935 
F    4.1136    13.9328    18.6122 
F    1.9359    13.9062    17.1001 
F   -0.5212    13.6596    18.6943 
F   -1.9824    15.8449    18.2009 
F   -2.8561    16.3552    15.6925 
F   -2.2670    14.6521    13.6726 
F   -0.8294    12.4513    14.1492 
C    3.0147     7.9649    13.5625 
H    3.2123     8.4383    12.6011 
H    3.1428     8.7244    14.3310 
C    3.9345     6.7419    13.7753 
H    4.8979     6.9204    13.2954 
H    4.1321     6.6291    14.8419 
C    3.2524     5.4767    13.2363 
H    3.8298     4.5867    13.4982 
H    3.2377     5.5167    12.1461 
C    0.6291     4.4643    13.1659 
C   -0.6780     4.4803    13.6234 
C   -1.7025     3.7113    13.1089 
C   -1.4258     2.8577    12.0546 
C   -0.1372     2.7984    11.5555 
C    0.8566     3.5874    12.1165 
C    1.8744     5.0183    15.4736 
C    1.8547     3.6779    15.8614 
C    2.0257     3.2465    17.1654 
C    2.2489     4.1732    18.1669 
C    2.3120     5.5123    17.8364 
C    2.1335     5.8948    16.5169 
C    0.1982     8.2507    14.7014 
H   -0.7470     8.4016    14.1768 
H   -0.0205     7.6014    15.5484 
C    0.7207     9.5912    15.2144 
H    1.0025    10.2391    14.3794 
H    1.6187     9.4270    15.8098 
C   -0.3465    10.2872    16.0767 
H   -0.6255     9.5974    16.8821 
H   -1.2450    10.4502    15.4801 
C    1.4395    11.6515    17.6349 
C    1.8738    10.5362    18.3556 
C    3.0022    10.5470    19.1563 
C    3.7603    11.7018    19.2426 
C    3.3805    12.8312    18.5368 
C    2.2380    12.7900    17.7615 
C   -0.6361    12.9509    16.4493 
C   -0.9433    13.8686    17.4475 
C   -1.6948    15.0052    17.2172 
C   -2.1463    15.2676    15.9337 
C   -1.8492    14.3915    14.9036 
C   -1.1141    13.2533    15.1796 
C    0.6076     7.7020    11.8568 
C   -0.8090     7.1366    11.6857 
H   -0.7921     6.0570    11.5479 
H   -1.2489     7.5774    10.7881 
H   -1.4713     7.3677    12.5209 
C    1.4940     7.0968    10.7650 
H    2.5161     7.4756    10.7923 
H    1.0703     7.3591     9.7925 
H    1.5267     6.0091    10.8314 
C    0.5578     9.2268    11.6930 
H   -0.1555     9.6882    12.3780 
H    0.2344     9.4598    10.6760 
H    1.5323     9.6941    11.8447 
B    1.7510     5.3991    13.8791 
B    0.1571    11.6209    16.7274 
C   -0.7939     5.9185    18.1549 
O   -0.7178     7.0021    17.6492 
O   -0.9440     4.7764    17.4956 
H   -0.7468     5.7371    19.2352 
H   -0.9637     4.9654    16.5402 













