63

 C                 10.98691400   10.04456300    4.78105200
 C                 12.13793800   10.57333900    5.15462700
 H                 12.52956500   10.75047000    6.15841100
 N                 13.11435900   11.05806100    4.13921600
 C                 13.25511000   12.53534400    4.15585100
 H                 13.62427600   12.81976000    5.14307400
 H                 12.25973000   12.95265100    4.00627900
 C                 14.21478100   12.97664800    3.06960000
 H                 13.77729100   12.74379200    2.08243700
 H                 14.33897800   14.05867400    3.12922800
 N                 15.50839100   12.33711900    3.24061500
 C                 16.46556500   12.82195700    2.26296300
 H                 16.15179100   12.60544500    1.23004500
 H                 17.43407700   12.35274800    2.43515400
 H                 16.58238300   13.90024900    2.36931900
 C                 15.35986100   10.89459200    3.15617500
 H                 16.33675300   10.42560200    3.28136900
 H                 14.96445300   10.58819000    2.17174300
 C                 14.43255400   10.38858400    4.24371000
 H                 14.25407700    9.31804700    4.14920700
 H                 14.83723700   10.60418600    5.23426500
 C                 10.01854000    7.94903700    2.40124000
 H                 10.25671100    7.77587800    1.34202200
 H                 10.74649700    7.33807000    2.95332400
 C                  8.60705300    7.40093500    2.65583200
 H                  8.31637600    7.61427000    3.69150500
 C                  7.58239600    8.07337900    1.74567800
 H                  7.83865700    7.89250700    0.69767900
 H                  7.55726900    9.15367200    1.89688800
 H                  6.57773700    7.68056400    1.91690900
 C                  8.54902300    5.88430400    2.47507700
 H                  7.54700500    5.49048400    2.66397200
 H                  9.24559700    5.38192700    3.14970200
 H                  8.82947300    5.61979800    1.45158500
 C                  9.20896000   11.30944600    2.23926200
 H                  9.03102400   11.12568200    1.17087300
 H                  8.22042400   11.23575700    2.71106000
 C                  9.72477500   12.74469100    2.42039700
 H                 10.80275000   12.76309500    2.19852300
 C                  9.52347200   13.22043700    3.85841600
 H                  8.45360900   13.28344400    4.07720800
 H                  9.95094700   14.21397900    4.02131400
 H                  9.96396100   12.52940000    4.58052400
 C                  9.05383300   13.72765700    1.46088100
 H                  7.97336200   13.72979900    1.62802700
 H                  9.22870200   13.44088000    0.42281200
 H                  9.41977800   14.74877300    1.60043000
 Si                 9.81602600    9.45784000    6.11513400
 C                  8.08063000    9.98014300    5.64045200
 H                  8.00507900   11.06863800    5.59215000
 H                  7.35111900    9.62004700    6.36901700
 H                  7.80054500    9.58893400    4.65966800
 C                  9.94596000    7.59099900    6.23033700
 H                  9.82741900    7.12203600    5.25234100
 H                  9.18218600    7.18603600    6.89768900
 H                 10.92392700    7.30475000    6.62306700
 C                 10.24597000   10.20320100    7.78649800
 H                 11.23830700    9.89559600    8.12362400
 H                  9.52913100    9.88026000    8.54446900
 H                 10.22221200   11.29458000    7.74897900
 Al                10.44824800    9.85104900    2.80875500
 H                 12.67323700   10.76809100    3.20634000
 H                 11.92428000   10.23199100    2.09274000