79

P   2.7980     8.8455     2.5365 
C   3.3717     9.3237     4.2592 
H   2.9895     8.5425     4.9085 
C   4.9081     9.2553     4.3727 
H   5.1449     9.3346     5.4376 
H   5.3503    10.1429     3.9120 
B   5.6558     7.9470     3.7560 
C   1.6483     7.4182     2.6078 
C   0.9896     6.9079     3.7390 
C   0.8521     7.6044     5.0724 
H  -0.1375     7.3970     5.4799 
H   0.9651     8.6821     5.0117 
H   1.5803     7.2336     5.7992 
C   0.3552     5.6673     3.6505 
H  -0.1316     5.2747     4.5378 
C   0.3226     4.9248     2.4839 
C  -0.2980     3.5587     2.4377 
H  -0.9313     3.3815     3.3058 
H   0.4828     2.7948     2.4304 
H  -0.8971     3.4276     1.5361 
C   0.9048     5.4825     1.3510 
H   0.8613     4.9403     0.4127 
C   1.5652     6.7002     1.3899 
C   2.1674     7.2175     0.1073 
H   1.8657     8.2462    -0.0996 
H   1.8522     6.5965    -0.7295 
H   3.2587     7.1990     0.1495 
C   1.9564    10.2965     1.7799 
C   0.5706    10.5385     1.7791 
C  -0.4388     9.6553     2.4625 
H  -1.4095    10.1478     2.4778 
H  -0.1559     9.4397     3.4903 
H  -0.5514     8.6975     1.9528 
C   0.0767    11.6586     1.1123 
H  -0.9937    11.8321     1.1176 
C   0.8994    12.5590     0.4565 
C   0.3431    13.7774    -0.2239 
H   0.5090    14.6671     0.3873 
H  -0.7288    13.6817    -0.3913 
H   0.8292    13.9459    -1.1852 
C   2.2653    12.3111     0.4679 
H   2.9326    12.9987    -0.0402 
C   2.8046    11.2010     1.1036 
C   4.2976    11.0066     1.0183 
H   4.7613    10.8624     1.9945 
H   4.7634    11.8735     0.5529 
H   4.5396    10.1292     0.4123 
C   4.7892     6.5663     3.9789 
C   4.4104     5.6513     3.0087 
F   4.7827     5.8064     1.7242 
C   3.6229     4.5372     3.2543 
F   3.3113     3.6956     2.2727 
C   3.1532     4.3079     4.5299 
F   2.3675     3.2691     4.7816 
C   3.4960     5.1898     5.5394 
F   3.0346     4.9948     6.7716 
C   4.2995     6.2751     5.2468 
F   4.6049     7.0794     6.2741 
C   7.2181     7.8765     4.2196 
C   7.7992     6.8639     4.9717 
F   7.0990     5.7881     5.3422 
C   9.1227     6.8833     5.3876 
F   9.6191     5.8846     6.1085 
C   9.9323     7.9479     5.0435 
F  11.1999     7.9802     5.4286 
C   9.4051     8.9792     4.2869 
F  10.1742    10.0061     3.9404 
C   8.0785     8.9230     3.9008 
F   7.6404     9.9535     3.1604 
C   2.8330    10.6731     4.7227 
H   3.2000    11.4767     4.0804 
H   1.7423    10.7203     4.7036 
H   3.1722    10.8763     5.7403 
C   6.6275     7.7274     1.2585 
H   7.4295     8.4530     1.1417 
H   7.0169     6.7781     1.6170 
H   6.1117     7.5750     0.3134 
O   5.6925     8.2522     2.2062 
H   4.7264     8.3644     1.9019 






















 
