92

 C                 -2.80603100   -0.41391600   -1.15208600
 C                 -1.68732400   -1.02238200   -0.58503300
 C                 -0.65782700   -0.18277200   -0.16663500
 C                 -0.70558300    1.20244100   -0.25760200
 C                 -1.84103400    1.76911900   -0.82443900
 C                 -2.88176500    0.96620000   -1.26889600
 C                  1.72681200    1.19187000   -0.00670000
 C                  1.65836900   -0.19248600    0.09770900
 C                  2.75070900   -1.03685000   -0.09411100
 C                  3.96252400   -0.42756800   -0.43887700
 C                  4.07009300    0.94816800   -0.55124200
 C                  2.95572500    1.74916200   -0.33989100
 H                 -3.61525200   -1.02514400   -1.52821600
 H                 -1.91713900    2.84295000   -0.92747100
 H                 -3.75685400    1.41870700   -1.71620600
 H                  4.83345600   -1.04717000   -0.61755500
 H                  5.01744000    1.40031300   -0.81192700
 H                  3.05009700    2.82199600   -0.44127100
 O                  0.45353900   -0.78788700    0.36938400
 B                  2.67296500   -2.58494600    0.04062000
 P                 -1.35334500   -2.83075800   -0.59960900
 C                  0.46784000    1.98296100    0.31690900
 C                  0.52661900    3.41110700   -0.21291800
 H                  1.36312300    3.94832700    0.23356900
 H                  0.63402400    3.43340000   -1.29858600
 H                 -0.37758300    3.95446900    0.06047800
 C                  0.31403100    2.02462300    1.85227600
 H                 -0.61162900    2.53723800    2.11998000
 H                  0.28789900    1.01803200    2.27144700
 H                  1.15650100    2.55789700    2.29624700
 C                  1.93561000   -3.33835000    1.19746000
 C                  1.62047300   -4.69731500    1.11868600
 C                  1.61579300   -2.72805400    2.41275400
 C                  1.07041600   -5.41148400    2.16414400
 C                  1.05077400   -3.41113600    3.47392300
 C                  0.79194200   -4.76441900    3.35498000
 C                  3.51302600   -3.40066700   -1.01832700
 C                  4.42509200   -4.38673400   -0.66575200
 C                  3.39530600   -3.13454500   -2.37735400
 C                  5.19060000   -5.06748700   -1.59309900
 C                  4.12764200   -3.81178800   -3.33730400
 C                  5.03434500   -4.77846300   -2.93905700
 C                 -1.79756000   -3.60662100    1.01821300
 C                 -1.82557900   -5.01700900    0.98456200
 C                 -2.05554800   -2.95677700    2.24193900
 C                 -2.18554500   -5.72981600    2.12572700
 C                 -2.39458400   -3.71603400    3.35758900
 C                 -2.48891500   -5.10098900    3.32148700
 H                 -2.20093400   -6.81334500    2.07581300
 H                 -2.58642400   -3.20168700    4.29321700
 C                 -2.71115100   -3.41713100   -1.70039400
 C                 -4.05226600   -3.57735800   -1.31226900
 C                 -2.32588400   -3.76807800   -3.00936900
 C                 -4.95977100   -4.12089300   -2.21995700
 C                 -3.26709400   -4.30175000   -3.88074100
 C                 -4.58811300   -4.50160400   -3.50029700
 H                 -5.99389600   -4.23851300   -1.91356200
 H                 -2.96000200   -4.56766800   -4.88654300
 C                 -1.97643000   -1.46552300    2.43845000
 H                 -0.97251900   -1.09400600    2.22752500
 H                 -2.66998700   -0.92406200    1.79422300
 H                 -2.21184900   -1.21787900    3.47216100
 C                 -1.47583100   -5.82668600   -0.24005600
 H                 -2.33217300   -5.92835600   -0.91020500
 H                 -0.66851100   -5.37144900   -0.81641400
 H                 -1.15559900   -6.82429300    0.05810200
 C                 -2.88265600   -5.88400900    4.54123900
 H                 -2.50780600   -5.40910600    5.44780300
 H                 -3.96984700   -5.94853300    4.62480000
 H                 -2.48985800   -6.89936700    4.49800800
 C                 -4.58634300   -3.17638100    0.03969900
 H                 -4.43542200   -3.96676800    0.77846700
 H                 -4.09929500   -2.28157400    0.42492600
 H                 -5.65598400   -2.98053300   -0.03107600
 C                 -0.91515200   -3.57900600   -3.50845800
 H                 -0.58615200   -2.54396600   -3.40379900
 H                 -0.20696300   -4.19004300   -2.94519300
 H                 -0.84771400   -3.85352500   -4.56003100
 C                 -5.57753200   -5.11763300   -4.44917500
 H                 -5.42974900   -4.74962400   -5.46464600
 H                 -5.46036100   -6.20325200   -4.47367000
 H                 -6.60165700   -4.90016100   -4.14842800
 F                  1.83932400   -5.38193100   -0.00381700
 F                  0.80369800   -6.70511600    2.03743700
 F                  0.29631500   -5.43764700    4.37758700
 F                  0.76449000   -2.78405900    4.60790200
 F                  1.88819500   -1.44376000    2.62887100
 F                  2.52531600   -2.22418400   -2.80921200
 F                  3.97145200   -3.54516500   -4.62749300
 F                  5.75065700   -5.42737000   -3.84206900
 F                  6.06404800   -5.99104800   -1.21399500
 F                  4.59966200   -4.70090300    0.61903000
