95

C       -2.695734000      0.106528000     -1.365163000
C       -1.713342000     -0.644877000     -0.713679000
C       -0.647749000      0.029464000     -0.117008000
C       -0.535368000      1.420052000     -0.149427000
C       -1.517766000      2.132879000     -0.819423000
C       -2.592621000      1.484156000     -1.420029000
C        1.834592000      1.114114000      0.388679000
C        1.597095000     -0.252001000      0.340423000
C        2.550568000     -1.219546000      0.045519000
C        3.853796000     -0.740974000     -0.082389000
C        4.155899000      0.610067000      0.029073000
C        3.147956000      1.540838000      0.230328000
H       -3.533108000     -0.390165000     -1.837045000
H       -1.457415000      3.211567000     -0.874529000
H       -3.351223000      2.058048000     -1.934316000
H        4.653443000     -1.435410000     -0.308336000
H        5.179358000      0.944149000     -0.081365000
H        3.389964000      2.594616000      0.257875000
O        0.281245000     -0.679429000      0.559727000
B        2.092787000     -2.730980000     -0.338873000
P       -1.845435000     -2.448163000     -0.687223000
C        0.636417000      2.028624000      0.615443000
C        0.910870000      3.463473000      0.178254000
H        1.745754000      3.875375000      0.743575000
H        1.149202000      3.520777000     -0.884979000
H        0.048094000      4.098595000      0.382075000
C        0.295411000      2.024545000      2.120632000
H       -0.619438000      2.590867000      2.307238000
H        0.168767000      1.008305000      2.493232000
H        1.114105000      2.483161000      2.677020000
C        1.679929000     -3.723226000      0.910384000
C        1.539012000     -5.097309000      0.727899000
C        1.399053000     -3.286562000      2.201365000
C        1.137080000     -5.971090000      1.724989000
C        0.999706000     -4.130719000      3.225351000
C        0.866339000     -5.482349000      2.986236000
C        3.194792000     -3.426519000     -1.317741000
C        4.342976000     -3.988619000     -0.779948000
C        3.103113000     -3.495295000     -2.699401000
C        5.329899000     -4.598463000     -1.532206000
C        4.066280000     -4.100957000     -3.492312000
C        5.186437000     -4.657858000     -2.906605000
C       -2.086272000     -3.185532000      0.964441000
C       -2.090540000     -4.595319000      1.058966000
C       -2.269307000     -2.408930000      2.136225000
C       -2.179390000     -5.182763000      2.319509000
C       -2.339516000     -3.061691000      3.358205000
C       -2.273734000     -4.443491000      3.483111000
H       -2.171774000     -6.266205000      2.377605000
H       -2.467514000     -2.462768000      4.252543000
C       -3.152575000     -2.869105000     -1.865459000
C       -4.458754000     -3.201294000     -1.452725000
C       -2.824827000     -2.838056000     -3.236031000
C       -5.375227000     -3.596174000     -2.417619000
C       -3.787631000     -3.243324000     -4.154538000
C       -5.053809000     -3.653359000     -3.768389000
H       -6.380765000     -3.851819000     -2.103160000
H       -3.534459000     -3.222655000     -5.208557000
C       -2.466783000     -0.914272000      2.194324000
H       -1.515479000     -0.387445000      2.150465000
H       -3.102615000     -0.532089000      1.398504000
H       -2.936827000     -0.662073000      3.142720000
C       -2.083821000     -5.570451000     -0.092761000
H       -2.749780000     -6.396821000      0.155496000
H       -2.403464000     -5.149001000     -1.040039000
H       -1.085423000     -5.981104000     -0.251477000
C       -2.326993000     -5.092701000      4.834066000
H       -1.431929000     -4.840829000      5.405325000
H       -3.190973000     -4.739289000      5.398712000
H       -2.380768000     -6.176466000      4.751102000
C       -4.948230000     -3.110353000     -0.029261000
H       -4.631431000     -3.965215000      0.569746000
H       -4.588307000     -2.211720000      0.472193000
H       -6.036341000     -3.081447000     -0.025349000
C       -1.508305000     -2.356698000     -3.794746000
H       -1.012031000     -1.614017000     -3.169803000
H       -0.815496000     -3.186437000     -3.938623000
H       -1.682694000     -1.892437000     -4.764256000
C       -6.055297000     -4.133905000     -4.777941000
H       -5.855570000     -3.715464000     -5.763313000
H       -6.009610000     -5.221750000     -4.863432000
H       -7.070393000     -3.868619000     -4.484247000
F        1.795862000     -5.663760000     -0.453755000
F        0.981790000     -7.269688000      1.473770000
F        0.441336000     -6.297138000      3.947593000
F        0.724149000     -3.647317000      4.437204000
F        1.511108000     -2.002008000      2.547222000
F        2.063413000     -2.968015000     -3.357761000
F        3.925123000     -4.145185000     -4.815237000
F        6.119369000     -5.235917000     -3.654742000
F        6.408578000     -5.121549000     -0.955427000
F        4.537603000     -3.951900000      0.547470000
C       -0.207379000     -3.244371000     -1.331571000
O       -0.263906000     -4.332313000     -1.821058000
O        0.774933000     -2.464920000     -1.123684000












 
