95

C       -3.079075000     -0.051893000     -0.916853000
C       -1.954045000     -0.790783000     -0.558439000
C       -0.792852000     -0.088757000     -0.232732000
C       -0.737226000      1.300307000     -0.181348000
C       -1.882896000      2.000570000     -0.540112000
C       -3.040889000      1.333439000     -0.914628000
C        1.709940000      1.098501000     -0.129379000
C        1.553122000     -0.279567000     -0.185744000
C        2.571424000     -1.180819000     -0.482824000
C        3.813257000     -0.617836000     -0.763289000
C        4.013856000      0.756024000     -0.747090000
C        2.968925000      1.608097000     -0.431448000
H       -3.983808000     -0.561579000     -1.219292000
H       -1.877515000      3.081859000     -0.529563000
H       -3.918887000      1.896146000     -1.202099000
H        4.647083000     -1.261326000     -1.014704000
H        4.989320000      1.163301000     -0.978134000
H        3.140264000      2.675603000     -0.414514000
O        0.308976000     -0.835745000      0.074844000
B        2.254893000     -2.756139000     -0.579550000
P       -1.830781000     -2.612808000     -0.678787000
C        0.536447000      1.939511000      0.349323000
C        0.660735000      3.402401000     -0.064111000
H        1.566887000      3.838938000      0.353812000
H        0.687593000      3.512044000     -1.149377000
H       -0.174240000      3.982969000      0.327633000
C        0.497771000      1.857295000      1.890621000
H       -0.368388000      2.399546000      2.275216000
H        0.439009000      0.820451000      2.224615000
H        1.406512000      2.295473000      2.306715000
C        1.599225000     -3.496288000      0.721606000
C        1.173973000     -4.811406000      0.589133000
C        1.467685000     -2.967547000      1.996938000
C        0.671960000     -5.574095000      1.625282000
C        0.952204000     -3.690538000      3.062299000
C        0.564524000     -5.004294000      2.880517000
C        3.550271000     -3.634380000     -1.045675000
C        4.622240000     -3.714502000     -0.164458000
C        3.710864000     -4.360890000     -2.210861000
C        5.773404000     -4.437534000     -0.420173000
C        4.840771000     -5.101644000     -2.514059000
C        5.884793000     -5.136784000     -1.610018000
C       -2.138023000     -3.460286000      0.926616000
C       -2.300940000     -4.855511000      0.821422000
C       -2.200701000     -2.858946000      2.198869000
C       -2.610791000     -5.598804000      1.957981000
C       -2.500918000     -3.648330000      3.303017000
C       -2.734128000     -5.014585000      3.206814000
H       -2.728299000     -6.672295000      1.858340000
H       -2.539356000     -3.176798000      4.279017000
C       -3.314034000     -3.030039000     -1.676398000
C       -4.616982000     -3.085326000     -1.153157000
C       -3.097487000     -3.344602000     -3.031285000
C       -5.660404000     -3.484422000     -1.986459000
C       -4.169642000     -3.732708000     -3.823249000
C       -5.460187000     -3.822314000     -3.315913000
H       -6.664646000     -3.521275000     -1.578173000
H       -3.993179000     -3.970866000     -4.866584000
C       -1.930843000     -1.399887000      2.453734000
H       -0.927754000     -1.128285000      2.121817000
H       -2.638340000     -0.746950000      1.940672000
H       -1.994496000     -1.195245000      3.520916000
C       -2.145566000     -5.618317000     -0.471082000
H       -3.063199000     -5.601085000     -1.062880000
H       -1.348614000     -5.209437000     -1.095480000
H       -1.896194000     -6.656296000     -0.256356000
C       -3.069969000     -5.825625000      4.425047000
H       -2.443282000     -5.534158000      5.268056000
H       -4.111240000     -5.672183000      4.716428000
H       -2.923687000     -6.889006000      4.240933000
C       -4.967743000     -2.727671000      0.269250000
H       -4.818340000     -3.577247000      0.939466000
H       -4.361962000     -1.907911000      0.652891000
H       -6.015124000     -2.432953000      0.325625000
C       -1.729279000     -3.287499000     -3.663595000
H       -1.237428000     -2.328774000     -3.491670000
H       -1.082647000     -4.071524000     -3.259614000
H       -1.803561000     -3.441169000     -4.738675000
C       -6.596988000     -4.278588000     -4.186008000
H       -6.540247000     -3.824653000     -5.175585000
H       -6.564971000     -5.361859000     -4.320323000
H       -7.559502000     -4.025023000     -3.744170000
F        1.245127000     -5.410110000     -0.618179000
F        0.281269000     -6.830132000      1.428065000
F        0.096621000     -5.712499000      3.900011000
F        0.823458000     -3.129604000      4.260518000
F        1.852288000     -1.719732000      2.271429000
F        2.723482000     -4.401058000     -3.136623000
F        4.924758000     -5.777903000     -3.653880000
F        6.978062000     -5.837104000     -1.875639000
F        6.767459000     -4.470452000      0.458456000
F        4.561640000     -3.067684000      1.002796000
O        1.147734000     -2.866630000     -1.729081000
H        0.195949000     -2.822830000     -1.389267000
H        1.254027000     -3.648536000     -2.291311000
























