32


C  6.2042    14.2521     8.6882 
C  5.8308    13.5215     9.8076 
H  5.2754    12.5959     9.7251 
C  6.1826    14.0163    11.0611 
H  5.9013    13.4652    11.9497 
C  6.8904    15.2100    11.2103 
H  7.1435    15.5577    12.2032 
C  7.2693    15.9614    10.1012 
H  7.8135    16.8922    10.2034 
C  6.8929    15.4284     8.8859 
N  7.0754    15.9012     7.5090 
C  6.3394    17.1482     7.2403 
H  5.3005    17.0161     7.5341 
H  6.3959    17.3762     6.1773 
H  6.7788    17.9659     7.8145 
C  8.4820    16.0165     7.0917 
H  8.9571    16.8583     7.5993 
H  8.5138    16.1666     6.0137 
H  8.9971    15.0938     7.3457 
C  5.0221    14.6341     6.1637 
C  3.7347    14.2487     6.5002 
F  3.4857    13.6731     7.6792 
C  2.6513    14.4171     5.6506 
F  1.4339    14.0287     6.0142 
C  2.8425    14.9975     4.4101 
F  1.8165    15.1711     3.5882 
C  4.1132    15.3972     4.0301 
F  4.3037    15.9566     2.8395 
C  5.1631    15.2017     4.9069 
F  6.3814    15.5999     4.5026 
B  6.3121    14.4110     7.0918 
H  7.1515    13.7453     6.5486 


