36

C        6.874119000     13.921875000      8.053678000
C        7.443805000     13.022572000      8.963544000
H        7.676785000     12.022915000      8.612758000
C        7.725626000     13.367468000     10.272241000
H        8.172393000     12.643445000     10.941573000
C        7.443981000     14.650982000     10.728625000
H        7.668824000     14.937074000     11.747182000
C        6.870977000     15.568085000      9.867245000
H        6.660991000     16.567426000     10.224691000
C        6.586630000     15.181511000      8.560911000
N        5.986061000     16.200861000      7.640911000
C        4.926498000     16.998927000      8.301756000
H        4.232899000     16.322906000      8.795354000
H        4.410925000     17.579654000      7.538475000
H        5.363868000     17.677154000      9.027518000
C        7.056128000     17.093520000      7.115817000
H        7.568094000     17.553132000      7.958019000
H        6.595322000     17.854240000      6.486349000
H        7.743072000     16.483182000      6.537697000
C        7.856977000     12.815976000      5.816881000
C        9.060467000     13.496139000      5.716819000
F        9.171065000     14.736205000      6.225912000
C       10.193342000     12.975619000      5.119437000
F       11.322702000     13.678149000      5.049913000
C       10.144247000     11.697761000      4.589869000
F       11.218901000     11.172022000      4.012439000
C        8.969678000     10.974055000      4.669002000
F        8.920171000      9.744434000      4.162014000
C        7.857174000     11.540519000      5.274891000
F        6.758966000     10.781328000      5.313847000
B        6.557828000     13.488416000      6.520917000
H        5.612473000     12.729592000      6.516193000
C        5.318600000     15.480788000      6.424572000
O        6.205282000     14.746242000      5.761049000
H        4.927505000     16.302136000      5.816636000
H        4.500122000     14.907509000      6.882933000




















