83

 P                  7.68879800    4.61089900    5.34563900
 B                 10.20683500    5.92494500    3.38915500
 C                  9.47291600    4.66129900    5.63945400
 H                  9.82097100    3.82611100    5.02833100
 C                 10.00769500    6.00189800    5.01496000
 H                  9.28703200    6.79241300    5.24288400
 C                 11.24749000    6.27527000    5.91633200
 H                 12.04347200    6.80420400    5.39720500
 C                 10.75091400    6.96270500    7.19312500
 H                 10.16135200    7.85219600    6.97595200
 H                 11.58678900    7.25913700    7.82905000
 C                  9.91384300    5.83824900    7.86659300
 H                 10.24469800    5.65214900    8.88887200
 H                  8.85660900    6.09404100    7.91249400
 C                 10.19695500    4.59305300    6.99785200
 H                 10.09232400    3.64998300    7.52701300
 C                 11.61539800    4.89451600    6.47691100
 H                 12.34998400    4.95013200    7.28181200
 H                 11.95430300    4.17948100    5.72610000
 C                  6.82904700    3.01424200    5.21778900
 C                  5.60519700    3.04009000    4.51793700
 C                  4.89258600    1.85638900    4.36169000
 H                  3.95250800    1.88502800    3.82353300
 C                  5.35409700    0.64792300    4.85665100
 C                  6.57373400    0.64181200    5.52012200
 H                  6.96118500   -0.29706600    5.89903400
 C                  7.32554600    1.79297400    5.71252800
 C                  5.03383500    4.28288700    3.88800200
 H                  4.06655300    4.06174100    3.44265900
 H                  5.68414700    4.65053200    3.09056700
 H                  4.89350200    5.08808800    4.60982000
 C                  4.57460000   -0.62275100    4.68037600
 H                  4.26200500   -1.01864900    5.64814700
 H                  5.18644300   -1.38585400    4.19759200
 H                  3.68506200   -0.46152700    4.07427800
 C                  8.62855900    1.64703700    6.44728500
 H                  8.79324700    0.60230700    6.70162000
 H                  8.62594800    2.21442400    7.37650500
 H                  9.47691000    1.97700600    5.84887800
 C                  6.73517600    5.80638000    6.30621400
 C                  6.35118000    5.48737100    7.62021600
 C                  5.62253800    6.41470000    8.34891800
 H                  5.33043900    6.17067100    9.36401500
 C                  5.27088300    7.64960000    7.81626400
 C                  5.66112900    7.94113600    6.51682900
 H                  5.39300500    8.90031100    6.08948800
 C                  6.38782900    7.04694500    5.73617600
 C                  6.73459300    4.18588800    8.26905100
 H                  6.49461500    4.20516100    9.33026100
 H                  7.80901500    4.00957200    8.17955800
 H                  6.21428900    3.33981400    7.81627800
 C                  4.51819700    8.65435900    8.63962900
 H                  5.21304700    9.24624000    9.23927900
 H                  3.82648400    8.16400300    9.32376500
 H                  3.95664300    9.34133400    8.00835500
 C                  6.71470900    7.45478400    4.32100500
 H                  6.13238300    6.87352000    3.60230200
 H                  7.76511800    7.32893000    4.06125600
 H                  6.46133600    8.50243300    4.17451500
 C                 10.69458600    7.32560300    2.69502400
 C                 11.01004800    7.33651600    1.33989500
 C                 11.39671400    8.46446900    0.64021200
 C                 11.47243700    9.67881000    1.29954700
 C                 11.15369300    9.73048500    2.64080400
 C                 10.77405000    8.56976700    3.29937800
 F                 10.94004800    6.20069400    0.63258900
 F                 11.68853700    8.40065000   -0.65713100
 F                 11.83678100   10.77894000    0.64792600
 F                 11.20739200   10.89342100    3.28985100
 F                 10.46489900    8.73054500    4.60101400
 C                 11.20657100    4.67960000    3.01984500
 C                 12.58903200    4.77576700    2.96023900
 C                 13.42342400    3.70729700    2.67558200
 C                 12.87467700    2.45800200    2.44613900
 C                 11.50228200    2.30420500    2.50455500
 C                 10.71140200    3.40650000    2.78364800
 F                 13.19280500    5.94931100    3.19339600
 F                 14.74388000    3.86184600    2.62981100
 F                 13.65731600    1.41693200    2.18132500
 F                 10.96021500    1.10388200    2.29998400
 F                  9.38180500    3.17212600    2.84344300
 H                  9.13432200    5.67163900    2.86534800
 H                  7.62906900    5.08462700    4.03948000