93

P   19.2330     5.4119    20.1025 
C   19.4445     4.8358    21.7992 
C   20.7669     4.4232    22.0609 
C   21.0100     3.9122    23.3416 
H   22.0084     3.5655    23.5598 
C   20.0381     3.8030    24.3210 
C   18.7568     4.2711    24.0182 
H   17.9768     4.2240    24.7694 
C   18.4323     4.7907    22.7782 
C   17.0251     5.2930    22.5730 
H   16.9731     6.3786    22.6867 
H   16.3659     4.8530    23.3199 
H   16.6181     5.0642    21.5897 
C   17.8325     6.5295    19.7687 
C   17.7852     7.7548    20.4702 
C   16.7765     8.6640    20.1760 
H   16.7459     9.5964    20.7287 
C   15.8123     8.4163    19.2126 
C   15.8592     7.1970    18.5545 
H   15.0969     6.9697    17.8185 
C   16.8372     6.2409    18.8076 
C   18.7512     8.1708    21.5545 
H   19.6001     8.7116    21.1331 
H   19.1367     7.3380    22.1398 
H   18.2474     8.8498    22.2409 
C   14.7599     9.4348    18.8848 
H   14.5400    10.0661    19.7448 
H   13.8373     8.9573    18.5572 
H   15.1024    10.0839    18.0759 
C   16.7171     4.9519    18.0321 
H   15.7836     4.9593    17.4735 
H   16.7108     4.0779    18.6810 
H   17.5320     4.8187    17.3214 
C   19.3721     3.9701    19.0053 
C   20.0811     4.0857    17.7963 
C   20.4093     2.9292    17.0994 
H   20.9869     3.0223    16.1862 
C   20.0228     1.6704    17.5330 
C   19.2223     1.5926    18.6645 
H   18.8694     0.6224    18.9969 
C   18.8885     2.7106    19.4155 
C   20.4858     5.3953    17.1736 
H   20.5418     5.2781    16.0925 
H   21.4695     5.7004    17.5339 
H   19.7678     6.1916    17.3783 
C   20.4226     0.4313    16.7863 
H   19.6161     0.1029    16.1268 
H   20.6385    -0.3851    17.4763 
H   21.3072     0.6084    16.1755 
C   17.9952     2.4814    20.6056 
H   17.2922     3.2976    20.7628 
H   18.5745     2.3564    21.5206 
H   17.4145     1.5738    20.4464 
B   22.0604     4.5126    21.0256 
C   23.3932     4.9941    21.8969 
C   24.2558     4.1055    22.5257 
C   23.7523     6.3262    22.0406 
C   25.3956     4.4851    23.2152 
C   24.8825     6.7553    22.7166 
C   25.7173     5.8257    23.3063 
C   22.4272     3.0943    20.2582 
C   23.3965     3.1229    19.2599 
C   21.8589     1.8515    20.4675 
C   23.7568     2.0201    18.5048 
C   22.1912     0.7204    19.7382 
C   23.1439     0.8037    18.7447 
F   20.9183     1.6686    21.4074 
F   21.5643    -0.4374    19.9587 
F   23.4570    -0.2663    18.0181 
F   24.6826     2.1143    17.5520 
F   24.0546     4.2548    18.9914 
F   22.9832     7.3048    21.5365 
F   25.1672     8.0523    22.8124 
F   26.8036     6.2157    23.9630 
F   26.1761     3.5772    23.7954 
F   23.9997     2.7866    22.5183 
C   20.3168     3.1956    25.6933 
C   21.7738     2.7572    25.8455 
H   22.0462     1.9992    25.1090 
H   22.4606     3.5994    25.7405 
H   21.9197     2.3286    26.8381 
C   20.0047     4.2298    26.7839 
H   18.9602     4.5424    26.7582 
H   20.2028     3.8024    27.7689 
H   20.6283     5.1172    26.6633 
C   19.4180     1.9652    25.8835 
H   19.6083     1.5111    26.8581 
H   18.3606     2.2285    25.8349 
H   19.6190     1.2202    25.1114 
C   20.8204     6.3694    19.9795 
O   21.8442     5.4683    19.9029 
H   20.8096     7.0377    19.1191 
H   20.8505     6.9739    20.8859 





















 
