92

P   19.6822     5.1361    19.7059 
C   19.8534     4.8039    21.4654 
C   21.1473     4.8445    22.0290 
C   21.2198     4.5645    23.3978 
H   22.1988     4.5455    23.8500 
C   20.1198     4.3068    24.1994 
C   18.8629     4.3163    23.5948 
H   17.9764     4.1252    24.1883 
C   18.7015     4.5568    22.2434 
C   17.2920     4.5642    21.7055 
H   16.8998     5.5818    21.6384 
H   16.6426     3.9961    22.3702 
H   17.2068     4.1276    20.7117 
C   18.2807     6.2435    19.3641 
C   18.3629     7.5181    19.9639 
C   17.3429     8.4330    19.7253 
H   17.4095     9.4114    20.1874 
C   16.2494     8.1310    18.9293 
C   16.1785     6.8596    18.3767 
H   15.3178     6.5968    17.7722 
C   17.1651     5.9005    18.5750 
C   19.4679     7.9334    20.8996 
H   19.4462     9.0129    21.0356 
H   20.4671     7.6532    20.5661 
H   19.3328     7.4700    21.8806 
C   15.1810     9.1510    18.6598 
H   15.4232     9.7237    17.7619 
H   15.0904     9.8547    19.4863 
H   14.2138     8.6764    18.4982 
C   16.9332     4.5558    17.9306 
H   15.8938     4.4852    17.6157 
H   17.1375     3.7205    18.5985 
H   17.5597     4.4134    17.0489 
C   19.7773     3.7377    18.5584 
C   20.1178     4.0749    17.2304 
C   20.1844     3.0679    16.2790 
H   20.4505     3.3294    15.2611 
C   19.9333     1.7384    16.5969 
C   19.6277     1.4299    17.9138 
H   19.4583     0.3947    18.1862 
C   19.5520     2.3975    18.9132 
C   20.4186     5.4856    16.7941 
H   20.5798     5.5147    15.7188 
H   21.3253     5.8643    17.2725 
H   19.6053     6.1751    17.0317 
C   20.0412     0.6692    15.5495 
H   19.5871    -0.2614    15.8855 
H   21.0915     0.4721    15.3266 
H   19.5579     0.9794    14.6229 
C   19.2419     1.9248    20.3092 
H   18.2810     2.2993    20.6641 
H   19.9973     2.2402    21.0280 
H   19.1974     0.8377    20.3227 
B   22.5549     5.2054    21.2122 
C   23.8305     5.3399    22.2594 
C   24.9826     4.5692    22.2881 
C   23.8061     6.3712    23.1961 
C   26.0357     4.7912    23.1659 
C   24.8287     6.6252    24.0917 
C   25.9591     5.8266    24.0745 
C   22.8126     4.0087    20.0858 
C   23.1515     4.2464    18.7645 
C   22.5985     2.6708    20.3880 
C   23.1952     3.2612    17.7899 
C   22.6306     1.6533    19.4548 
C   22.9186     1.9549    18.1356 
F   22.3374     2.3080    21.6520 
F   22.3470     0.3976    19.7949 
F   22.9161     0.9983    17.2118 
F   23.4659     3.5674    16.5219 
F   23.4568     5.4870    18.3348 
F   22.7345     7.1659    23.2913 
F   24.7367     7.6182    24.9740 
F   26.9545     6.0542    24.9234 
F   27.1175     4.0167    23.1380 
F   25.1535     3.5392    21.4485 
C   20.2375     4.0261    25.6951 
C   21.6842     4.0960    26.1853 
H   22.3128     3.3512    25.6943 
H   22.1187     5.0829    26.0124 
H   21.7109     3.9011    27.2585 
C   19.4166     5.0670    26.4698 
H   18.3599     5.0296    26.2030 
H   19.4987     4.8805    27.5425 
H   19.7836     6.0746    26.2671 
C   19.6898     2.6223    25.9881 
H   19.7695     2.4065    27.0555 
H   18.6405     2.5333    25.7038 
H   20.2554     1.8661    25.4409 
O   22.3591     6.5098    20.5599 
H   20.8077     5.8985    19.4039 
H   23.1596     6.8089    20.1237 




















 
