91

P   19.4018     5.5734    19.6888 
H   20.3792     6.5365    19.4997 
C   19.6673     4.9926    21.3632 
C   21.0094     4.6972    21.6647 
C   21.2721     4.2949    22.9805 
H   22.2990     4.0666    23.2291 
C   20.2907     4.1413    23.9434 
C   18.9706     4.4241    23.5762 
H   18.1755     4.3024    24.3025 
C   18.6279     4.8516    22.3074 
C   17.1711     5.1145    22.0185 
H   16.9562     6.1804    21.9225 
H   16.5626     4.7228    22.8317 
H   16.8349     4.6386    21.0957 
C   17.8998     6.5419    19.4050 
C   17.9131     7.8426    19.9477 
C   16.8161     8.6669    19.7303 
H   16.8244     9.6661    20.1505 
C   15.7161     8.2470    18.9955 
C   15.7284     6.9599    18.4738 
H   14.8742     6.6155    17.9019 
C   16.7955     6.0900    18.6628 
C   19.0614     8.3787    20.7645 
H   18.7754     9.3156    21.2374 
H   19.9386     8.5782    20.1439 
H   19.3743     7.6873    21.5493 
C   14.5289     9.1449    18.7974 
H   13.7741     8.9492    19.5622 
H   14.0655     8.9753    17.8262 
H   14.8111    10.1942    18.8701 
C   16.6894     4.7107    18.0667 
H   15.6718     4.5375    17.7220 
H   16.9343     3.9307    18.7873 
H   17.3631     4.5841    17.2182 
C   19.7378     4.3392    18.4279 
C   20.2831     4.8034    17.2199 
C   20.6260     3.8740    16.2440 
H   21.0670     4.2266    15.3191 
C   20.4452     2.5130    16.4361 
C   19.8938     2.0829    17.6394 
H   19.7527     1.0196    17.8024 
C   19.5397     2.9624    18.6504 
C   20.5534     6.2601    16.9546 
H   20.8080     6.4091    15.9075 
H   21.4029     6.6003    17.5542 
H   19.6931     6.8932    17.1839 
C   20.8516     1.5133    15.3933 
H   19.9878     0.9405    15.0510 
H   21.5721     0.8042    15.8056 
H   21.3091     1.9999    14.5342 
C   18.9828     2.3793    19.9230 
H   18.1236     2.9307    20.3052 
H   19.7324     2.3753    20.7170 
H   18.6700     1.3516    19.7471 
B   22.2620     4.7912    20.6109 
C   23.5397     5.4667    21.3665 
C   24.6182     4.7946    21.9169 
C   23.5774     6.8462    21.5125 
C   25.6776     5.4321    22.5452 
C   24.6094     7.5269    22.1317 
C   25.6736     6.8101    22.6509 
C   22.6149     3.3831    19.8505 
C   23.0773     3.4232    18.5407 
C   22.4463     2.1022    20.3556 
C   23.3279     2.2969    17.7752 
C   22.6759     0.9473    19.6259 
C   23.1207     1.0454    18.3210 
H   22.0003     5.5517    19.7139 
F   22.0336     1.9172    21.6184 
F   22.4722    -0.2539    20.1647 
F   23.3333    -0.0510    17.5955 
F   23.7316     2.4068    16.5087 
F   23.2977     4.5975    17.9331 
F   22.5627     7.5959    21.0462 
F   24.5929     8.8547    22.2380 
F   26.6769     7.4414    23.2518 
F   26.6903     4.7351    23.0550 
F   24.6712     3.4554    21.8803 
C   20.5902     3.6543    25.3584 
C   22.0827     3.4074    25.5791 
H   22.4677     2.6412    24.9038 
H   22.6663     4.3184    25.4343 
H   22.2441     3.0650    26.6025 
C   19.8409     2.3358    25.6005 
H   20.0526     1.9669    26.6062 
H   18.7616     2.4629    25.5087 
H   20.1571     1.5777    24.8818 
C   20.1157     4.7058    26.3711 
H   19.0429     4.8864    26.2943 
H   20.3271     4.3653    27.3867 
H   20.6321     5.6542    26.2130 













 
