94

P    19.3699     4.9261    19.9990 
C    19.6543     4.4180    21.7257 
C    20.9726     4.2498    22.1937 
C    21.1603     4.2100    23.5787 
H    22.1756     4.0901    23.9345 
C    20.1284     4.2535    24.4972 
C    18.8330     4.3034    23.9854 
H    17.9880     4.2711    24.6633 
C    18.5644     4.3872    22.6299 
C    17.1058     4.3896    22.2420 
H    16.7040     5.3997    22.1469 
H    16.5363     3.8741    23.0141 
H    16.9200     3.8718    21.3039 
C    17.9266     6.0254    19.8964 
C    18.0945     7.3122    20.4448 
C    17.0360     8.2112    20.3861 
H    17.1666     9.1964    20.8190 
C    15.8253     7.8836    19.7946 
C    15.6843     6.6091    19.2622 
H    14.7389     6.3303    18.8105 
C    16.7045     5.6655    19.2982 
C    19.3773     7.7739    21.0855 
H    19.2184     8.7232    21.5924 
H    20.1577     7.9278    20.3368 
H    19.7650     7.0627    21.8162 
C    14.7075     8.8829    19.7129 
H    14.7427     9.5828    20.5467 
H    13.7363     8.3896    19.7124 
H    14.7854     9.4624    18.7904 
C    16.3984     4.3191    18.6898 
H    15.3193     4.1924    18.6204 
H    16.7985     3.4835    19.2605 
H    16.8134     4.2347    17.6833 
C    19.3606     3.7464    18.6378 
C    19.4484     4.2880    17.3420 
C    19.4674     3.4106    16.2650 
H    19.5459     3.8209    15.2649 
C    19.3951     2.0351    16.4305 
C    19.2903     1.5333    17.7215 
H    19.2241     0.4616    17.8698 
C    19.2749     2.3610    18.8359 
C    19.4821     5.7645    17.0530 
H    19.7132     5.9266    16.0025 
H    20.2538     6.2721    17.6306 
H    18.5188     6.2339    17.2655 
C    19.4611     1.1119    15.2483 
H    18.9212     0.1853    15.4397 
H    20.4999     0.8526    15.0326 
H    19.0458     1.5810    14.3572 
C    19.1602     1.7293    20.1946 
H    18.3025     2.1053    20.7566 
H    20.0447     1.9300    20.7947 
H    19.0502     0.6508    20.0996 
B    22.3339     3.9500    21.3350 
C    23.4939     4.9925    21.8900 
C    24.5869     4.6758    22.6834 
C    23.3434     6.3510    21.6491 
C    25.4730     5.6214    23.1803 
C    24.1981     7.3307    22.1165 
C    25.2810     6.9587    22.8931 
C    22.7920     2.3636    21.4634 
C    23.9247     1.9686    20.7601 
C    22.1623     1.3306    22.1417 
C    24.4106     0.6775    20.7159 
C    22.6126     0.0167    22.1292 
C    23.7430    -0.3151    21.4124 
F    21.0435     1.5283    22.8570 
F    21.9525    -0.9274    22.7962 
F    24.1831    -1.5665    21.3875 
F    25.5062     0.3784    20.0256 
F    24.6332     2.8885    20.0887 
F    22.2988     6.7797    20.9150 
F    23.9887     8.6139    21.8381 
F    26.1178     7.8752    23.3606 
F    26.5014     5.2527    23.9363 
F    24.8392     3.4116    23.0423 
C    20.3509     4.1815    26.0041 
C    21.8358     4.1606    26.3668 
H    22.3363     3.2772    25.9664 
H    22.3524     5.0479    25.9953 
H    21.9424     4.1400    27.4523 
C    19.7042     5.4023    26.6728 
H    18.6313     5.4457    26.4826 
H    19.8523     5.3560    27.7535 
H    20.1522     6.3269    26.3045 
C    19.7011     2.8978    26.5412 
H    19.8691     2.8181    27.6172 
H    18.6246     2.8891    26.3668 
H    20.1304     2.0187    26.0576 
C    22.7778     4.8050    19.0061 
O    22.0352     4.1694    19.8861 
O    22.3626     5.1402    17.9282 
H    23.8053     5.0143    19.3320 
H    20.4050     5.8020    19.7118 



















