52

P    0.1645    -0.0133    -0.1855 
C    1.9999    -0.0118     0.0488 
C    2.6765     1.2240     0.1550 
B    2.0005     2.6324     0.1539 
C    2.7520    -1.1852     0.1014 
C    4.1325    -1.1592     0.2510 
C    4.7986     0.0510     0.3496 
C    4.0670     1.2271     0.3016 
O    2.7448     3.7854     0.0995 
O    0.6595     2.8920     0.2601 
H    2.2657    -2.1483     0.0283 
H    4.6834    -2.0909     0.2909 
H    5.8747     0.0790     0.4616 
H    4.5766     2.1802     0.3754 
C    0.5060     4.3024     0.5210 
C    1.8289     4.8867    -0.0643 
C    0.4040     4.4588     2.0336 
H    0.2236     5.4967     2.3155 
H   -0.4275     3.8500     2.3905 
H    1.3164     4.1153     2.5237 
C   -0.7609     4.7965    -0.1490 
H   -1.6279     4.3440     0.3326 
H   -0.8428     5.8811    -0.0520 
H   -0.7799     4.5325    -1.2041 
C    2.3669     6.0975     0.6726 
H    3.2835     6.4388     0.1916 
H    1.6407     6.9124     0.6434 
H    2.5916     5.8632     1.7111 
C    1.7358     5.1707    -1.5586 
H    1.0989     6.0328    -1.7595 
H    2.7360     5.3790    -1.9376 
H    1.3383     4.3078    -2.0947 
C   -0.3108     0.2454     1.6124 
H    0.3730     1.0423     1.9137 
C   -0.2169    -1.8058    -0.5050 
H    0.2630    -2.4508     0.2352 
C   -1.7291    -2.0245    -0.4241 
H   -1.9790    -3.0321    -0.7643 
H   -2.1116    -1.9119     0.5892 
H   -2.2575    -1.3146    -1.0653 
C   -1.7277     0.8023     1.7343 
H   -2.4811     0.0815     1.4133 
H   -1.9447     1.0642     2.7733 
H   -1.8377     1.6976     1.1204 
C   -0.0698    -0.9522     2.5238 
H    0.9544    -1.3201     2.4347 
H   -0.2355    -0.6719     3.5670 
H   -0.7477    -1.7772     2.2979 
C    0.2710    -2.1717    -1.9086 
H    1.3363    -1.9872    -2.0465 
H    0.0773    -3.2270    -2.1147 
H   -0.2650    -1.5805    -2.6543 













 
