58

P        0.408452000      0.006514000      0.773199000
C        2.057364000      0.149937000      1.596018000
C        2.796076000      1.347834000      1.482776000
B        2.340154000      2.661308000      0.762072000
C        2.599149000     -0.897136000      2.342945000
C        3.840073000     -0.790440000      2.955375000
C        4.579430000      0.373024000      2.823254000
C        4.054690000      1.424701000      2.089932000
O        1.087612000      2.968239000      0.300071000
O        3.227481000      3.688827000      0.563943000
H        2.051415000     -1.820041000      2.465233000
H        4.226516000     -1.622586000      3.530650000
H        5.550845000      0.463674000      3.291747000
H        4.621623000      2.341612000      1.986778000
C        2.585527000      4.663689000     -0.283600000
C        1.073994000      4.380831000     -0.025572000
C        3.010546000      4.353869000     -1.713908000
H        2.600583000      5.080726000     -2.415688000
H        4.098318000      4.386532000     -1.771106000
H        2.682332000      3.356257000     -2.010532000
C        3.045153000      6.051741000      0.115906000
H        4.107099000      6.161626000     -0.103956000
H        2.497463000      6.808419000     -0.449452000
H        2.893313000      6.229042000      1.178458000
C        0.168875000      4.603528000     -1.220891000
H       -0.861304000      4.404582000     -0.926797000
H        0.242093000      5.639063000     -1.560247000
H        0.433014000      3.945345000     -2.047605000
C        0.527118000      5.110388000      1.194356000
H        0.445570000      6.181389000      1.004628000
H       -0.464118000      4.715296000      1.415425000
H        1.170702000      4.957127000      2.062152000
C       -0.370116000     -1.465184000      1.632989000
H       -0.046975000     -1.347878000      2.671462000
C        0.906372000     -0.675895000     -0.894205000
H        1.430561000     -1.622959000     -0.740087000
C       -0.348072000     -0.912243000     -1.735692000
H       -0.077825000     -1.343600000     -2.702303000
H       -1.059079000     -1.585505000     -1.257936000
H       -0.859940000      0.034533000     -1.921066000
C       -1.893112000     -1.300434000      1.618360000
H       -2.292073000     -1.390834000      0.605772000
H       -2.364304000     -2.075668000      2.227175000
H       -2.191145000     -0.325453000      2.005696000
C        0.016454000     -2.863798000      1.151884000
H        1.093105000     -3.022339000      1.103373000
H       -0.403993000     -3.615913000      1.823750000
H       -0.385017000     -3.061475000      0.156954000
C        1.835034000      0.287794000     -1.629099000
H        2.774425000      0.442812000     -1.097634000
H        2.070770000     -0.108692000     -2.619428000
H        1.347967000      1.257445000     -1.759272000
O       -1.823443000      2.698963000      0.704645000
H       -0.939906000      2.307517000      0.790492000
C       -2.458077000      2.075034000     -0.383985000
H       -3.457908000      2.499191000     -0.472717000
H       -1.922632000      2.249859000     -1.325571000
H       -2.550002000      0.993132000     -0.239130000












 
