55

P    0.3661    -0.2093    -0.0977 
C    2.0796    -0.0503     0.3760 
C    2.6241     1.2224     0.1586 
B    1.7208     2.4559    -0.3945 
C    2.8216    -1.1047     0.9097 
C    4.1495    -0.8945     1.2390 
C    4.7186     0.3574     1.0263 
C    3.9664     1.3955     0.4958 
O    2.4749     3.6080    -0.7389 
O    0.6850     2.8747     0.5435 
H    2.3779    -2.0824     1.0602 
H    4.7400    -1.7014     1.6525 
H    5.7604     0.5183     1.2749 
H    4.4144     2.3673     0.3251 
C    0.9355     4.2352     0.8868 
C    1.7210     4.7560    -0.3584 
C    1.7875     4.2556     2.1545 
H    1.9582     5.2717     2.5136 
H    1.2678     3.6954     2.9334 
H    2.7520     3.7781     1.9749 
C   -0.3871     4.9386     1.1382 
H   -0.8590     4.5237     2.0307 
H   -0.2322     6.0075     1.3016 
H   -1.0658     4.8063     0.2975 
C    2.6797     5.8959    -0.0616 
H    3.1638     6.2128    -0.9859 
H    2.1457     6.7523     0.3565 
H    3.4531     5.5853     0.6391 
C    0.7914     5.1450    -1.5063 
H    0.2642     6.0770    -1.2941 
H    1.3927     5.2805    -2.4053 
H    0.0627     4.3590    -1.7034 
C   -0.7124     0.2712     1.2966 
H   -0.1496     1.1026     1.7273 
C    0.0324    -1.9053    -0.6802 
H    0.3365    -2.5395     0.1597 
C   -1.4426    -2.1697    -0.9919 
H   -1.5420    -3.1970    -1.3462 
H   -2.0797    -2.0582    -0.1163 
H   -1.7948    -1.4974    -1.7723 
C   -2.0643     0.8108     0.8342 
H   -2.6352     0.0807     0.2610 
H   -2.6500     1.0869     1.7126 
H   -1.9288     1.7023     0.2222 
C   -0.8073    -0.8659     2.3134 
H    0.1801    -1.2164     2.6212 
H   -1.3209    -0.5022     3.2042 
H   -1.3733    -1.7150     1.9288 
C    0.9184    -2.2134    -1.8907 
H    1.9728    -2.0223    -1.6911 
H    0.8052    -3.2652    -2.1560 
H    0.6080    -1.6114    -2.7452 
O   -0.7578     0.6292    -2.3362 
O    0.9330     1.9270    -1.6601 
C    0.1215     0.9508    -1.5738 






























 
