55

P    0.1003    -0.2640    -0.0946 
C    1.9122    -0.0035     0.0732 
C    2.4179     1.2762    -0.2319 
B    1.5099     2.5333    -0.6515 
C    2.7805    -1.0135     0.4861 
C    4.1437    -0.7798     0.6025 
C    4.6511     0.4757     0.3074 
C    3.7911     1.4861    -0.1009 
O    0.3894     2.8837     0.1753 
O    2.1890     3.7238    -0.9957 
H    2.4011    -2.0013     0.7176 
H    4.8027    -1.5771     0.9226 
H    5.7137     0.6665     0.3915 
H    4.1847     2.4683    -0.3346 
C    1.4274     4.8375    -0.5304 
C    0.6152     4.2132     0.6452 
C    0.5244     5.3309    -1.6607 
H    0.0429     6.2759    -1.4045 
H    1.1306     5.4788    -2.5546 
H   -0.2699     4.6152    -1.8846 
C    2.3804     5.9476    -0.1238 
H    2.8789     6.3444    -1.0089 
H    1.8400     6.7636     0.3609 
H    3.1424     5.5740     0.5574 
C   -0.7181     4.8819     0.9265 
H   -1.2044     4.3836     1.7661 
H   -0.5738     5.9320     1.1899 
H   -1.3831     4.8230     0.0666 
C    1.4378     4.1289     1.9294 
H    1.5954     5.1127     2.3738 
H    0.9001     3.5069     2.6461 
H    2.4082     3.6676     1.7378 
C   -0.4712     0.1685     1.6267 
H    0.1330     1.0543     1.8348 
C   -0.0947    -2.0988    -0.2522 
H    0.3979    -2.5953     0.5876 
C   -1.5784    -2.4685    -0.2291 
H   -1.6998    -3.5354    -0.4287 
H   -2.0436    -2.2551     0.7326 
H   -2.1264    -1.9193    -0.9986 
C   -1.9347     0.6043     1.6363 
H   -2.6081    -0.2073     1.3554 
H   -2.2202     0.9377     2.6370 
H   -2.0882     1.4320     0.9429 
C   -0.1646    -0.8929     2.6764 
H    0.8906    -1.1721     2.6668 
H   -0.3990    -0.5108     3.6727 
H   -0.7597    -1.7959     2.5260 
C    0.5422    -2.5627    -1.5621 
H    1.6012    -2.3118    -1.6183 
H    0.4397    -3.6449    -1.6678 
H    0.0406    -2.0954    -2.4129 
O    0.7464     1.9739    -2.1067 
H    0.1711     1.2329    -1.7876 
H    0.1683     2.6816    -2.4210 































 
