56

P    0.1880    -0.0630    -0.1163 
C    2.0225    -0.0490     0.0760 
C    2.6987     1.1889     0.1530 
B    2.0324     2.6045     0.1528 
C    2.7730    -1.2239     0.1217 
C    4.1561    -1.1983     0.2396 
C    4.8230     0.0129     0.3131 
C    4.0913     1.1890     0.2725 
O    2.7872     3.7451     0.2515 
O    0.6854     2.8764     0.1841 
H    2.2848    -2.1873     0.0706 
H    4.7072    -2.1299     0.2755 
H    5.9014     0.0420     0.4003 
H    4.6029     2.1419     0.3288 
C    0.5299     4.2639     0.5482 
C    1.9019     4.8743     0.1203 
C    0.3070     4.2947     2.0560 
H    0.1239     5.3087     2.4129 
H   -0.5614     3.6787     2.2932 
H    1.1710     3.8879     2.5842 
C   -0.6744     4.8335    -0.1748 
H   -1.5790     4.3348     0.1751 
H   -0.7709     5.9016     0.0306 
H   -0.5949     4.6918    -1.2509 
C    2.3954     5.9978     1.0116 
H    3.3517     6.3633     0.6378 
H    1.6854     6.8275     1.0037 
H    2.5343     5.6625     2.0375 
C    1.9307     5.3019    -1.3413 
H    1.3094     6.1830    -1.5073 
H    2.9584     5.5447    -1.6111 
H    1.5965     4.4906    -1.9884 
C   -0.2802     0.2922     1.6620 
H    0.3993     1.1091     1.9142 
C   -0.2135    -1.8603    -0.3632 
H    0.2917    -2.4773     0.3840 
C   -1.7217    -2.0778    -0.2282 
H   -1.9801    -3.0930    -0.5381 
H   -2.0722    -1.9436     0.7938 
H   -2.2723    -1.3836    -0.8683 
C   -1.7011     0.8420     1.7644 
H   -2.4508     0.0971     1.4941 
H   -1.9104     1.1629     2.7882 
H   -1.8256     1.6996     1.1007 
C   -0.0177    -0.8550     2.6310 
H    1.0102    -1.2139     2.5506 
H   -0.1777    -0.5226     3.6595 
H   -0.6870    -1.6985     2.4544 
C    0.2308    -2.2736    -1.7688 
H    1.2794    -2.0499    -1.9652 
H    0.0750    -3.3446    -1.9172 
H   -0.3657    -1.7446    -2.5157 
C    0.4857     1.7651    -2.6765 
O    1.6355     2.1123    -2.6722 
H    0.1521     0.8831    -3.2493 
H   -0.2909     2.3116    -2.1199 



























 
