80

B   10.5504     8.3040     7.5919 
C    8.9826     8.1054     8.0605 
C    8.3062     9.0737     8.8065 
H    8.8258     9.9827     9.0845 
C    6.9996     8.9086     9.2450 
H    6.5286     9.6845     9.8358 
C    6.3000     7.7541     8.9307 
H    5.2809     7.6137     9.2660 
C    6.9334     6.7762     8.1816 
H    6.4037     5.8629     7.9294 
C    8.2517     6.9398     7.7601 
C    8.8865     5.7946     7.0188 
H    8.3671     4.8624     7.2194 
H    9.9287     5.6946     7.3022 
N    8.8864     6.0131     5.5177 
C    9.7376     5.0125     4.7249 
C    6.9017     4.8687     4.6793 
C    5.6598     4.8879     4.0645 
H    5.1538     3.9599     3.8405 
C    5.0631     6.0932     3.7229 
H    4.0951     6.0987     3.2390 
C    5.7049     7.2819     3.9979 
H    5.2327     8.2163     3.7254 
C    6.9585     7.3188     4.6158 
C    7.5321     6.0925     4.9409 
C    7.5962     8.6726     4.8597 
H    8.4797     8.5647     5.4840 
C    6.6418     9.5936     5.6227 
H    7.1525    10.5204     5.8789 
H    6.3076     9.1212     6.5464 
H    5.7656     9.8484     5.0236 
C    8.0339     9.3078     3.5371 
H    8.5051    10.2725     3.7301 
H    7.1772     9.4718     2.8796 
H    8.7487     8.6766     3.0045 
C   11.1627     4.9721     5.2650 
H   11.2222     4.5475     6.2660 
H   11.6199     5.9591     5.2759 
H   11.7442     4.3250     4.6072 
C    9.7753     5.5370     3.2883 
H   10.1345     6.5691     3.2697 
H    8.8013     5.4963     2.8029 
H   10.4716     4.9286     2.7123 
C   11.0499     9.8518     7.8762 
C   10.4539    10.8944     7.1766 
F    9.4800    10.6284     6.2898 
C   10.7841    12.2276     7.3248 
F   10.1688    13.1703     6.6152 
C   11.7689    12.5789     8.2313 
F   12.1064    13.8511     8.3963 
C   12.3916    11.5869     8.9613 
F   13.3374    11.9107     9.8372 
C   12.0268    10.2596     8.7738 
F   12.6893     9.3806     9.5334 
C   11.5154     7.2101     8.3984 
C   11.2312     6.7404     9.6760 
F   10.1982     7.2312    10.3687 
C   11.9857     5.7812    10.3318 
F   11.6533     5.3697    11.5521 
C   13.1023     5.2501     9.7128 
F   13.8361     4.3263    10.3219 
C   13.4490     5.7054     8.4558 
F   14.5313     5.2207     7.8500 
C   12.6656     6.6703     7.8428 
F   13.1130     7.0916     6.6473 
C    7.5803     3.5753     5.0723 
H    7.4397     3.4671     6.1515 
C    9.0983     3.6189     4.8066 
H    9.6010     3.0307     5.5764 
H    9.3054     3.1201     3.8567 
C    6.9775     2.3285     4.4344 
H    5.9542     2.1540     4.7644 
H    6.9834     2.4073     3.3454 
H    7.5673     1.4548     4.7144 
O   10.5899     8.0005     6.1196 
H    9.3970     6.9255     5.4546 
C   11.4015     8.6867     5.1976 
H   10.8146     9.4314     4.6508 
H   12.2409     9.1884     5.6798 
H   11.8192     7.9756     4.4778 




























 
