77

B   10.4040     8.3548     7.6093 
C    8.8548     8.2384     8.0311 
C    8.1982     9.2160     8.7752 
H    8.7286    10.1219     9.0455 
C    6.8905     9.0433     9.2134 
H    6.4169     9.8105     9.8129 
C    6.1930     7.8907     8.8866 
H    5.1746     7.7496     9.2240 
C    6.8130     6.9194     8.1135 
H    6.2763     6.0153     7.8453 
C    8.1287     7.0895     7.6970 
C    8.8208     5.9425     7.0212 
H    8.2087     5.0543     7.1344 
H    9.7906     5.7659     7.4761 
N    9.0571     6.0897     5.5226 
C    9.9602     4.8936     5.0001 
C    7.1508     4.7834     4.6889 
C    5.8565     4.6965     4.1909 
H    5.3988     3.7244     4.0733 
C    5.1401     5.8287     3.8566 
H    4.1368     5.7432     3.4605 
C    5.7094     7.0678     4.0505 
H    5.1426     7.9542     3.8016 
C    6.9869     7.2317     4.5897 
C    7.7103     6.0601     4.8718 
C    7.4129     8.6780     4.8063 
H    8.3122     8.7288     5.4066 
C    6.3737     9.4721     5.6039 
H    6.8056    10.4367     5.8748 
H    6.0898     8.9570     6.5189 
H    5.4738     9.6683     5.0191 
C    7.6768     9.3712     3.4669 
H    8.0258    10.3886     3.6447 
H    6.7531     9.4259     2.8863 
H    8.4265     8.8469     2.8798 
C   11.3733     4.9979     5.5731 
H   11.4082     4.9537     6.6609 
H   11.8963     5.8942     5.2416 
H   11.9254     4.1378     5.1926 
C   10.0554     4.8968     3.4696 
H   10.7505     5.6485     3.1119 
H    9.0975     5.0608     2.9817 
H   10.4280     3.9153     3.1743 
C   10.9193     9.9036     7.6020 
C   10.6490    10.7654     6.5483 
F    9.9353    10.3457     5.4952 
C   11.0593    12.0867     6.5115 
F   10.7737    12.8599     5.4684 
C   11.7632    12.6081     7.5814 
F   12.1622    13.8729     7.5692 
C   12.0329    11.7997     8.6691 
F   12.6906    12.2944     9.7127 
C   11.6050    10.4816     8.6612 
F   11.8741     9.7752     9.7670 
C   11.4324     7.3941     8.4554 
C   11.1241     6.6867     9.6077 
F    9.9009     6.7445    10.1456 
C   12.0355     5.8807    10.2744 
F   11.6807     5.2201    11.3722 
C   13.3238     5.7623     9.7895 
F   14.2068     4.9932    10.4120 
C   13.6826     6.4545     8.6463 
F   14.9197     6.3492     8.1720 
C   12.7427     7.2488     8.0136 
F   13.1573     7.9008     6.9228 
C    7.8406     3.4643     5.0341 
H    7.2787     3.0440     5.8742 
C    9.3026     3.6097     5.4820 
H    9.4021     3.5196     6.5622 
H    9.8920     2.7911     5.0679 
C    7.7427     2.4531     3.8817 
H    6.7139     2.2225     3.6166 
H    8.2432     2.8297     2.9896 
H    8.2229     1.5191     4.1755 
C    9.9309     7.3489     5.1691 
O   10.0116     7.5919     4.0081 
O   10.5656     7.8352     6.1433 






























 
