79

B       10.539872000      8.065325000      7.541774000
C        8.916981000      8.047092000      7.758630000
C        8.201288000      9.214446000      8.029458000
H        8.735586000     10.154332000      8.103462000
C        6.828843000      9.219364000      8.237330000
H        6.320429000     10.149499000      8.458065000
C        6.112114000      8.035302000      8.165245000
H        5.042145000      8.024511000      8.325837000
C        6.790135000      6.859001000      7.889909000
H        6.242549000      5.923143000      7.837884000
C        8.169930000      6.855011000      7.691492000
C        8.832625000      5.514812000      7.493711000
H        8.259285000      4.734656000      7.987141000
H        9.838438000      5.522973000      7.895673000
N        8.964031000      5.097315000      6.038479000
C        9.776120000      3.809522000      5.827534000
C        6.953575000      3.807782000      5.548914000
C        5.755151000      3.653642000      4.868050000
H        5.183145000      2.743851000      4.979274000
C        5.285793000      4.657413000      4.032239000
H        4.351232000      4.523634000      3.503292000
C        6.008250000      5.822044000      3.871975000
H        5.633840000      6.595855000      3.215206000
C        7.222085000      6.027455000      4.531854000
C        7.663564000      4.997259000      5.356607000
C        7.977667000      7.319561000      4.285777000
H        8.794887000      7.415794000      4.998278000
C        7.081997000      8.538194000      4.515610000
H        7.672837000      9.447665000      4.415021000
H        6.649643000      8.519649000      5.516213000
H        6.272414000      8.584316000      3.785247000
C        8.577282000      7.329477000      2.877421000
H        9.152665000      8.243912000      2.728685000
H        7.787842000      7.290944000      2.123387000
H        9.248840000      6.484628000      2.722349000
C       11.174248000      3.966769000      6.417071000
H       11.171246000      4.093981000      7.498571000
H       11.708253000      4.795186000      5.953438000
H       11.722603000      3.048640000      6.203429000
C        9.906812000      3.612240000      4.316341000
H       10.332309000      4.505866000      3.855566000
H        8.956410000      3.373710000      3.841616000
H       10.592083000      2.783318000      4.140936000
C       11.089041000      9.592411000      7.297446000
C       10.728641000     10.281634000      6.145307000
F        9.980952000      9.668435000      5.211958000
C       11.090950000     11.586955000      5.872336000
F       10.715069000     12.181278000      4.744751000
C       11.853587000     12.278902000      6.797109000
F       12.213819000     13.532801000      6.563529000
C       12.232223000     11.647201000      7.965374000
F       12.959250000     12.303925000      8.861974000
C       11.847799000     10.332781000      8.193221000
F       12.248143000      9.813177000      9.357371000
C       11.334412000      7.293077000      8.760662000
C       10.862296000      7.233647000     10.065776000
F        9.755213000      7.893169000     10.417010000
C       11.495511000      6.531690000     11.078093000
F       10.992010000      6.507754000     12.307912000
C       12.668727000      5.851352000     10.806118000
F       13.287534000      5.170667000     11.762007000
C       13.193492000      5.898435000      9.528667000
F       14.328803000      5.262413000      9.254404000
C       12.528507000      6.618653000      8.549299000
F       13.128908000      6.652154000      7.347824000
C        7.482515000      2.746741000      6.493790000
H        7.179076000      3.061930000      7.497262000
C        9.026700000      2.653116000      6.493498000
H        9.371012000      2.537379000      7.523001000
H        9.330959000      1.745971000      5.967044000
C        6.875573000      1.363760000      6.275292000
H        5.806735000      1.345531000      6.483169000
H        7.036623000      1.028874000      5.248525000
H        7.351777000      0.647458000      6.945672000
C       11.540206000      7.379277000      5.278442000
O       10.738283000      7.209935000      6.296534000
O       11.496429000      6.649045000      4.317304000
H       12.246728000      8.215361000      5.357496000
H        9.526673000      5.845144000      5.609576000























