55

P        3.900344000      2.575955000      6.955426000
F        5.715028000      5.848637000      9.290036000
F        1.387604000      4.257788000      8.252192000
F        3.937130000      4.014451000      4.289470000
C        2.972074000      5.360598000      5.964171000
C        3.579761000      5.019542000      8.628156000
F        0.769919000      7.152149000      2.924077000
B        3.957053000      4.690554000      7.081297000
F        0.483520000      7.979972000      5.489712000
F        0.665707000      4.618559000     10.791217000
C        4.452107000      5.532737000      9.580300000
F        2.524229000      5.156918000      2.347355000
C        4.801932000      1.771196000      8.388061000
C        3.096539000      5.003213000      4.628832000
C        1.328316000      6.997959000      5.200200000
F        4.963841000      6.218366000     11.776221000
C        1.475480000      6.585031000      3.890321000
C        2.306760000      4.741138000      9.104382000
F        2.453857000      5.604017000     12.589562000
C        2.809505000      5.420542000     11.327578000
C        2.331148000      1.636529000      6.486954000
C        4.087026000      5.732740000     10.906307000
C        2.374619000      5.574213000      3.599337000
C        1.901467000      4.918918000     10.410179000
C        6.175709000      2.453651000      8.466122000
H        6.721621000      2.015548000      9.305194000
H        6.095245000      3.525740000      8.646685000
H        6.755616000      2.298134000      7.557252000
C        1.411776000      2.513054000      5.627608000
H        0.526657000      1.920778000      5.383246000
H        1.887360000      2.785945000      4.686629000
H        1.085581000      3.414957000      6.139315000
C        1.545649000      1.138599000      7.703087000
H        0.630163000      0.665239000      7.340824000
H        1.255654000      1.947224000      8.371781000
H        2.095805000      0.389042000      8.269131000
C        5.031462000      0.282158000      8.105837000
H        5.716744000     -0.104918000      8.863806000
H        5.489557000      0.119476000      7.128996000
H        4.114489000     -0.301818000      8.167869000
C        2.743544000      0.436352000      5.620716000
H        1.837150000     -0.095535000      5.320645000
H        3.383922000     -0.268602000      6.145397000
H        3.256188000      0.762513000      4.714851000
C        4.106393000      1.925817000      9.746957000
H        4.671475000      1.337773000     10.474522000
H        3.082300000      1.560499000      9.754527000
H        4.108435000      2.956817000     10.092812000
F        1.887156000      6.885658000      7.428738000
C        2.075323000      6.394176000      6.201667000
C        6.324352000      4.776089000      6.082950000
O        5.312021000      5.186478000      6.812300000
O        6.467140000      3.697528000      5.574528000
H        7.079836000      5.569322000      6.007966000
H        4.734455000      2.209838000      5.899895000
