76

 C                 12.51077300    9.83005200   10.51997000
 H                 11.45126800    9.79979600   10.26813600
 H                 13.02287500   10.41903700    9.76289900
 C                 13.15041900    8.45154900   10.63159200
 C                 12.38242900    7.40599600   10.95039600
 H                 12.85599200    6.43008100   10.96329800
 C                 10.91814100    7.36561500   11.28146000
 H                 10.76951600    7.08203800   12.32827000
 H                 10.41340200    6.61028400   10.67510900
 H                 10.40294100    8.31469000   11.13367100
 C                 11.51726100    9.99828700   13.30208100
 C                 10.15882200   10.35129300   13.25101300
 C                  9.28347000    9.76921900   14.15616400
 H                  8.23528500   10.04375100   14.12136200
 C                  9.71430600    8.84244600   15.09766300
 C                 11.06039300    8.50283000   15.12065300
 H                 11.40867500    7.77711600   15.84636300
 C                 11.98368600    9.05424200   14.23884400
 C                  9.61162800   11.30371600   12.22315900
 H                  8.57518000   11.54866400   12.44612900
 H                  9.62902500   10.85062300   11.22813500
 H                 10.17626900   12.23562500   12.18030000
 C                  8.74139200    8.19852400   16.04266300
 H                  8.30571300    7.30758600   15.58513800
 H                  7.92495400    8.87590600   16.29015600
 H                  9.23198400    7.89084600   16.96493400
 C                 13.41686500    8.59667300   14.32839700
 H                 13.50966900    7.81445400   15.07848200
 H                 14.08872600    9.40835500   14.61917000
 H                 13.76990200    8.18572400   13.38173400
 C                 12.80350900   12.48854100   12.08949200
 C                 12.45278800   13.28173800   10.98464900
 C                 12.73542100   14.64392100   11.03248600
 H                 12.46562800   15.25568400   10.17938800
 C                 13.35744700   15.23675900   12.11857700
 C                 13.67558100   14.43481400   13.20880200
 H                 14.14937400   14.88144400   14.07547300
 C                 13.41185500   13.07488400   13.22234200
 C                 11.80385900   12.76512600    9.72728500
 H                 12.55722900   12.39513400    9.02927100
 H                 11.27108500   13.57595700    9.23360200
 H                 11.09165700   11.96567400    9.91255400
 C                 13.70537900   16.69622200   12.11571600
 H                 13.53713200   17.14283900   13.09540800
 H                 13.12089300   17.24226600   11.37712400
 H                 14.76180800   16.82580700   11.87108100
 C                 13.80837700   12.28676500   14.44340500
 H                 14.07056200   12.96332400   15.25374500
 H                 14.68571400   11.66540400   14.24519400
 H                 13.00679600   11.63563100   14.79539100
 C                 15.47414700    6.98684200   10.19464800
 F                 16.45901600    7.39998500    8.07915400
 C                 16.28612700    6.59698900    9.13364000
 F                 17.72849900    5.08002000    8.03504100
 C                 16.96990400    5.39274400    9.08411600
 F                 17.51033600    3.34473600   10.11172500
 C                 16.86412300    4.50605800   10.13823100
 F                 15.97676400    4.00773400   12.25348200
 C                 16.08129900    4.84757500   11.22357800
 F                 14.70321500    6.31320700   12.34090800
 C                 15.41856700    6.06383900   11.23055400
 C                 15.56050100    9.64776000   10.83404700
 F                 14.95551500   11.21351600    9.14642000
 C                 15.53458900   10.94328500   10.32909400
 F                 15.90758200   13.27386500   10.48320300
 C                 16.03011200   12.05317700   10.99884300
 F                 17.08163600   12.93752300   12.91169600
 C                 16.62995300   11.88849100   12.23158900
 F                 17.30681400   10.44272300   13.94892100
 C                 16.74109700   10.61227500   12.75516800
 F                 16.31927100    8.35274700   12.66737800
 C                 16.21774800    9.53650500   12.05478900
 P                 12.67905100   10.68204400   12.10824700
 B                 14.70281100    8.42448300   10.11171700
 H                 13.91829200   10.30800700   12.60123500
 H                 14.62475700    8.72851900    8.94664800