41

C   14.3546     6.6016    10.5295 
C   14.0183     7.6472    11.4023 
H   14.1118     8.6660    11.0453 
C   13.5745     7.4155    12.6942 
H   13.3217     8.2405    13.3470 
C   13.4598     6.1073    13.1376 
H   13.1148     5.9030    14.1439 
C   13.7856     5.0488    12.2973 
H   13.6896     4.0355    12.6607 
C   14.2328     5.2711    10.9961 
N   14.5677     4.1870    10.1308 
C   15.8699     3.5255    10.3897 
C   16.2624     2.7167     9.1467 
H   16.5061     3.4226     8.3467 
H   17.1703     2.1531     9.3740 
C   15.1534     1.7993     8.6607 
H   14.9140     1.0460     9.4163 
H   15.4789     1.2546     7.7724 
C   13.9329     2.6441     8.3374 
H   13.1130     2.0268     7.9631 
H   14.1987     3.3514     7.5457 
C   13.4247     3.4482     9.5408 
C   12.4029     4.4600     9.0132 
H   12.8804     5.1672     8.3339 
H   11.9289     5.0198     9.8204 
H   11.6226     3.9283     8.4662 
C   12.6777     2.5136    10.5109 
H   12.2561     3.0737    11.3450 
H   13.3102     1.7232    10.9092 
H   11.8460     2.0389     9.9859 
C   15.9069     2.6158    11.6323 
H   15.6801     3.1806    12.5361 
H   16.9124     2.2062    11.7495 
H   15.2159     1.7784    11.5648 
C   16.9398     4.6033    10.5885 
H   16.9451     5.2969     9.7468 
H   17.9198     4.1273    10.6502 
H   16.7810     5.1713    11.5060 
B   14.8367     6.9717     9.1101 
H   14.9029     8.1284     8.8260 
H   15.1396     6.1559     8.3017 



 
