44

C    14.1825     6.5712    10.7385 
C    13.8184     7.5617    11.6660 
H    13.8536     8.5920    11.3300 
C    13.4274     7.2718    12.9512 
H    13.1531     8.0609    13.6397 
C    13.3870     5.9396    13.3507 
H    13.0774     5.6687    14.3515 
C    13.7417     4.9448    12.4648 
H    13.6804     3.9363    12.8214 
C    14.1497     5.2483    11.1562 
N    14.5249     4.1194    10.2053 
C    15.8111     3.3246    10.7359 
C    16.0034     1.9961     9.9806 
H    16.3921     2.1744     8.9844 
H    16.7709     1.4488    10.5307 
C    14.7357     1.1592     9.8954 
H    14.4020     0.8629    10.8935 
H    14.9516     0.2337     9.3599 
C    13.6361     1.9163     9.1660 
H    12.7276     1.3121     9.1351 
H    13.9342     2.0959     8.1388 
C    13.2408     3.2355     9.8534 
C    12.3706     4.0890     8.9290 
H    12.8153     4.2235     7.9443 
H    12.1689     5.0686     9.3661 
H    11.4185     3.5760     8.7928 
C    12.3803     2.8714    11.0686 
H    11.9114     3.7363    11.5267 
H    12.9114     2.2990    11.8255 
H    11.5836     2.2340    10.6870 
C    15.7793     2.9838    12.2310 
H    15.8209     3.8630    12.8654 
H    16.6837     2.4067    12.4190 
H    14.9379     2.3590    12.5217 
C    17.0086     4.2524    10.5224 
H    17.2542     4.3839     9.4703 
H    17.8743     3.8035    11.0093 
H    16.8343     5.2300    10.9754 
B    14.5706     7.0701     9.2890 
H    13.6077     7.5140     8.7046 
H    15.4851     7.8573     9.3118 
C    15.0148     4.6253     8.7375 
O    15.0485     5.8480     8.5095 
O    15.3191     3.7409     7.9937 









 
