43

C   14.4338     6.4042    10.4171 
C   14.1903     7.6146    11.0901 
H   14.3751     8.5291    10.5378 
C   13.7357     7.6913    12.3942 
H   13.5676     8.6571    12.8547 
C   13.4934     6.5277    13.1171 
H   13.1378     6.5652    14.1379 
C   13.7176     5.3116    12.5004 
H   13.5333     4.3920    13.0507 
C   14.1761     5.2737    11.1832 
N   14.3669     3.8858    10.6617 
C   15.8674     3.4000    10.5288 
C   16.2114     2.8961     9.1275 
H   16.4161     3.7515     8.4852 
H   17.1415     2.3324     9.2310 
C   15.1312     2.0407     8.4914 
H   14.9313     1.1438     9.0851 
H   15.4716     1.6924     7.5157 
C   13.8793     2.8812     8.3193 
H   13.0912     2.3066     7.8269 
H   14.1063     3.7371     7.6852 
C   13.2764     3.3829     9.6312 
C   12.2665     4.4816     9.3325 
H   12.7315     5.3256     8.8278 
H   11.7635     4.8323    10.2333 
H   11.5169     4.0468     8.6685 
C   12.5636     2.2388    10.3592 
H   12.1296     2.5902    11.2994 
H   13.2275     1.3989    10.5692 
H   11.7468     1.8722     9.7389 
C   15.9902     2.2618    11.5468 
H   15.7455     2.6148    12.5524 
H   17.0197     1.9070    11.5664 
H   15.3481     1.4137    11.3046 
C   16.8318     4.5123    10.9144 
H   16.7689     5.3522    10.2260 
H   17.8368     4.0897    10.8597 
H   16.6645     4.8661    11.9314 
B   14.9649     6.4529     8.8884 
H   14.1387     7.0472     8.2171 
H   16.0200     7.0636     8.8714 
H   15.1287     5.3354     8.4459 
H   14.0878     3.3505    11.4777 




