84

B    0.7799    -0.2051    10.3578 
C   -0.4988    -0.8848    11.1235 
C   -0.3755    -2.2600    11.3670 
H    0.5281    -2.7633    11.0391 
C   -1.3579    -3.0101    11.9870 
H   -1.2090    -4.0706    12.1460 
C   -2.5352    -2.3995    12.3972 
H   -3.3188    -2.9696    12.8786 
C   -2.6842    -1.0413    12.1910 
H   -3.5895    -0.5487    12.5295 
C   -1.6820    -0.2821    11.5773 
C   -1.9307     1.2000    11.5241 
H   -1.1409     1.7374    12.0479 
H   -2.8809     1.4508    11.9901 
N   -1.9318     1.8064    10.1352 
C   -2.7518     1.1068     9.0736 
H   -2.8769     0.0692     9.3833 
C   -4.1191     1.8670     9.0588 
C   -3.7029     3.2209     9.5862 
C   -4.3992     4.4142     9.5571 
H   -5.3779     4.4747     9.0980 
C   -3.8099     5.5388    10.1248 
H   -4.3349     6.4850    10.1123 
C   -2.5492     5.4664    10.6970 
H   -2.1105     6.3613    11.1205 
C   -1.8187     4.2750    10.7382 
C   -2.4485     3.1761    10.1725 
C   -0.4377     4.2312    11.3554 
H    0.0014     3.2521    11.1589 
C   -0.5095     4.4149    12.8737 
H    0.4868     4.3327    13.3085 
H   -1.1469     3.6629    13.3406 
H   -0.9148     5.3982    13.1212 
C    0.4849     5.2825    10.7341 
H    1.5041     5.1395    11.0956 
H    0.1733     6.2925    11.0058 
H    0.4929     5.2170     9.6448 
C   -2.0157     1.1360     7.7516 
C   -2.2651     0.1195     6.8331 
H   -2.9275    -0.6942     7.1030 
C   -1.6445     0.1139     5.5942 
H   -1.8364    -0.6963     4.9033 
C   -0.7556     1.1261     5.2566 
H   -0.2577     1.1152     4.2961 
C   -0.5047     2.1459     6.1616 
H    0.1875     2.9390     5.9098 
C   -1.1366     2.1552     7.3982 
H   -0.9291     2.9707     8.0816 
C   -5.1180     1.1963    10.0115 
H   -5.3777     0.2022     9.6426 
H   -6.0307     1.7907    10.0737 
H   -4.7191     1.0892    11.0191 
C   -4.7535     1.9639     7.6732 
H   -4.9569     0.9710     7.2698 
H   -4.1141     2.4953     6.9699 
H   -5.7046     2.4932     7.7486 
C    1.0913    -0.9930     8.9285 
C    2.3289    -0.9441     8.2978 
F    3.3657    -0.3359     8.8926 
C    2.5912    -1.4869     7.0520 
F    3.8015    -1.3974     6.5078 
C    1.5750    -2.1230     6.3631 
F    1.7962    -2.6416     5.1609 
C    0.3244    -2.2006     6.9406 
F   -0.6701    -2.8034     6.2884 
C    0.1090    -1.6384     8.1890 
F   -1.1473    -1.7567     8.6475 
C    2.0238    -0.2797    11.4506 
C    2.9333    -1.3228    11.5541 
F    2.8925    -2.3512    10.6946 
C    3.9188    -1.3960    12.5242 
F    4.7626    -2.4226    12.5612 
C    4.0238    -0.3900    13.4664 
F    4.9613    -0.4397    14.4050 
C    3.1307     0.6630    13.4224 
F    3.2045     1.6346    14.3302 
C    2.1590     0.6877    12.4364 
F    1.3097     1.7333    12.4950 
C    1.5455     1.9641     9.3723 
H    2.4772     1.8994     9.9400 
H    1.7260     1.6085     8.3539 
H    1.2385     3.0103     9.3226 
O    0.5239     1.2243     9.9986 
H   -0.8779     1.7046     9.8865 


























 
