39

P    2.1228     6.3703     7.9668 
F    2.7383     5.6971     9.3550 
N    1.6855     7.4562     6.5095 
C    2.7345     5.0236     6.9275 
C    1.8506     4.1931     6.2450 
H    0.7812     4.3226     6.3653 
C    2.3369     3.1905     5.4173 
H    1.6451     2.5421     4.8955 
C    3.7053     3.0208     5.2595 
H    4.0831     2.2408     4.6113 
C    4.5886     3.8490     5.9387 
H    5.6562     3.7160     5.8219 
C    4.1069     4.8437     6.7773 
H    4.7956     5.4810     7.3184 
C    3.1450     7.8413     8.0629 
C    4.1375     8.4447     8.7962 
H    4.4629     8.0443     9.7479 
C    4.7197     9.5879     8.2413 
H    5.5052    10.1085     8.7712 
C    4.3087    10.0489     6.9916 
H    4.7948    10.9250     6.5792 
C    3.3050     9.4320     6.2438 
H    3.0188     9.8088     5.2713 
C    2.6999     8.3240     6.8270 
C    0.4065     6.1000     8.5094 
C    0.1182     4.9912     9.3086 
H    0.9179     4.3359     9.6240 
C   -1.1858     4.7296     9.6976 
H   -1.3994     3.8609    10.3068 
C   -2.2120     5.5848     9.3179 
H   -3.2286     5.3849     9.6317 
C   -1.9307     6.6969     8.5390 
H   -2.7249     7.3715     8.2470 
C   -0.6293     6.9479     8.1246 
H   -0.4089     7.8063     7.5060 
C    1.2424     7.1963     5.1659 
H    1.0038     8.1348     4.6585 
H    1.9875     6.6578     4.5660 
H    0.3316     6.5957     5.1933 





 
