45

P        2.237729000      6.054828000      8.632021000
F        3.619683000      5.962122000      9.592640000
N        2.598226000      7.076465000      5.673633000
C        2.771225000      4.535392000      7.774788000
C        1.856778000      3.558292000      7.388695000
H        0.803992000      3.698172000      7.588298000
C        2.291691000      2.407648000      6.746545000
H        1.575345000      1.645374000      6.468688000
C        3.637449000      2.239732000      6.453343000
H        3.973937000      1.347442000      5.941047000
C        4.550476000      3.218711000      6.819556000
H        5.600896000      3.095690000      6.590064000
C        4.123291000      4.353448000      7.492540000
H        4.838787000      5.103958000      7.798580000
C        2.833633000      7.668511000      8.028160000
C        3.208792000      8.618372000      8.972412000
H        3.154030000      8.358904000     10.021415000
C        3.652039000      9.880152000      8.611290000
H        3.925365000     10.602220000      9.367793000
C        3.751864000     10.185632000      7.262499000
H        4.108231000     11.159362000      6.950233000
C        3.401195000      9.258236000      6.298724000
H        3.493209000      9.522173000      5.255181000
C        2.922300000      7.984977000      6.650587000
C        1.228738000      5.918333000     10.166343000
C        1.741714000      6.300566000     11.407456000
H        2.752149000      6.672543000     11.480536000
C        0.974909000      6.184730000     12.557653000
H        1.387056000      6.500185000     13.507331000
C       -0.303700000      5.651302000     12.495773000
H       -0.895938000      5.549185000     13.396081000
C       -0.814990000      5.241989000     11.273351000
H       -1.806627000      4.812449000     11.214330000
C       -0.061183000      5.387423000     10.118206000
H       -0.479310000      5.080659000      9.170424000
C        2.578843000      7.431931000      4.277357000
H        1.912984000      8.276976000      4.062961000
H        3.579869000      7.690677000      3.925363000
H        2.237815000      6.570236000      3.708204000
C       -0.023250000      7.206118000      7.645097000
O        0.848674000      6.096176000      7.626242000
H       -1.042571000      6.846591000      7.493451000
H        0.013361000      7.746745000      8.595014000
H        0.231678000      7.905112000      6.843386000
H        1.984634000      6.328408000      5.956995000




























 
