42

 P                  1.85491300    6.17317500    7.84000600
 F                  2.95729900    5.50253900    8.89512100
 N                  2.08080500    8.18118300    5.55813300
 C                  2.29868800    4.94219000    6.57530900
 C                  1.33466900    4.42720700    5.71033700
 H                  0.31152700    4.77308400    5.77021900
 C                  1.68963300    3.47784000    4.76267100
 H                  0.93306800    3.07420200    4.10298800
 C                  3.00807900    3.06148400    4.65178200
 H                  3.28417500    2.33059500    3.90251600
 C                  3.97434900    3.58429600    5.50085100
 H                  5.00470400    3.26487900    5.41483600
 C                  3.62041500    4.50929500    6.47056900
 H                  4.36853600    4.89692300    7.14806000
 C                  2.74740900    7.74043100    7.86971300
 C                  3.43290600    8.14705400    9.01131200
 H                  3.41660600    7.50830400    9.88284500
 C                  4.13618900    9.33890300    9.03722200
 H                  4.65578800    9.64523200    9.93446700
 C                  4.17970900   10.12019700    7.89228700
 H                  4.73712500   11.04809600    7.88783000
 C                  3.50898600    9.73282800    6.74528600
 H                  3.54590200   10.36488200    5.87064500
 C                  2.76481800    8.55032600    6.72207500
 C                  0.51737700    5.81517700    9.01578200
 C                  0.53292500    4.60329300    9.70272600
 H                  1.33505500    3.89811200    9.53292900
 C                 -0.47956300    4.29976900   10.60035800
 H                 -0.47155000    3.34835600   11.11574600
 C                 -1.49110200    5.21771400   10.84448000
 H                 -2.27406200    4.98517800   11.55480700
 C                 -1.49847600    6.43387100   10.17608300
 H                 -2.28405100    7.15357600   10.36512800
 C                 -0.50791700    6.72699500    9.25087100
 H                 -0.53255500    7.66179000    8.70921100
 C                  2.40193000    8.82097500    4.29331100
 H                  1.99653200    9.83412200    4.23683600
 H                  3.48330900    8.85557100    4.17232400
 H                  1.96040000    8.22890700    3.49914800
 C                  0.90793300    7.44040600    5.60537700
 O                  0.64209600    6.89378400    6.78485800
 O                  0.17944700    7.32366200    4.65421100