57

B    4.8288     1.4379     6.5433 
C    2.3809     1.7301     6.5793 
C    1.2686     0.9578     6.3776 
H    1.1482     0.0944     7.0113 
C    0.3179     1.2889     5.3908 
C    0.5677     2.4707     4.6486 
H   -0.0858     2.7656     3.8444 
C    1.6806     3.2338     4.8635 
C    3.4804     1.3476     7.4901 
H    3.5856     2.0759     8.2962 
H    3.2837     0.3680     7.9172 
C    1.9401     4.4329     4.0054 
H    1.8587     5.3496     4.5850 
H    2.9455     4.4044     3.5883 
H    1.2159     4.4435     3.1948 
C   -0.8562    -0.8383     5.6961 
H    0.1492    -1.2427     5.8000 
H   -1.3171    -0.8201     6.6902 
C   -1.8550     0.9773     4.2985 
H   -1.6398     0.7652     3.2448 
H   -1.9512     2.0558     4.4104 
C    4.5404     0.5238     5.2099 
C    4.2963    -0.8340     5.3709 
C    3.8817    -1.6711     4.3540 
C    3.6866    -1.1479     3.0861 
C    3.9123     0.1962     2.8718 
C    4.3301     0.9976     3.9263 
C    6.2091     1.1165     7.3379 
C    7.1776     0.1991     6.9547 
C    8.3417    -0.0285     7.6731 
C    8.5824     0.6886     8.8282 
C    7.6557     1.6265     9.2458 
C    6.5067     1.8193     8.5008 
F    4.4511    -1.3901     6.5807 
F    3.6563    -2.9633     4.5758 
F    3.2793    -1.9303     2.0933 
F    3.7149     0.7161     1.6631 
F    4.4976     2.2967     3.6266 
F    7.0448    -0.5228     5.8365 
F    9.2311    -0.9240     7.2553 
F    9.6913     0.4850     9.5266 
F    7.8788     2.3293    10.3521 
F    5.6609     2.7506     8.9603 
N    2.5763     2.8586     5.8273 
N   -0.7545     0.5196     5.1509 
C   -3.1529     0.3094     4.7308 
H   -3.9772     0.7311     4.1562 
H   -3.3317     0.5708     5.7761 
C   -1.6527    -1.7181     4.7428 
H   -1.6390    -2.7428     5.1129 
H   -1.1335    -1.7254     3.7819 
C   -3.0900    -1.2141     4.5674 
H   -3.7481    -1.6840     5.2991 
H   -3.4577    -1.5043     3.5826 
O    3.7775     4.8300     5.9594 
O    4.8817     2.9176     6.1937 
C    3.8400     3.6408     6.0139 



































 
