57

B     4.9168     2.1755     6.3995 
C     2.4073     2.4248     6.6553 
C     1.4342     1.4657     6.5020 
H     1.4705     0.6150     7.1629 
C     0.4889     1.5512     5.4598 
C     0.4994     2.7383     4.6714 
H    -0.1878     2.8766     3.8530 
C     1.4523     3.6919     4.8780 
C     3.6174     2.2608     7.4750 
H     3.8015     3.1426     8.0878 
H     3.5300     1.3829     8.1114 
C     1.5928     4.9229     4.0438 
H     1.4996     5.8154     4.6642 
H     2.5773     4.9373     3.5730 
H     0.8321     4.9512     3.2684 
C    -0.1782    -0.7914     5.7675 
H     0.8699    -0.9146     6.0311 
H    -0.7708    -0.9018     6.6822 
C    -1.4319     0.6960     4.2028 
H    -1.0322     0.5758     3.1880 
H    -1.8414     1.7021     4.2844 
C     4.3767     1.1957     5.1628 
C     3.9976    -0.1130     5.4326 
C     3.2727    -0.9075     4.5650 
C     2.8842    -0.3928     3.3391 
C     3.2449     0.8974     3.0123 
C     3.9831     1.6505     3.9165 
C     6.2659     1.6005     7.1431 
C     7.1167     0.6265     6.6400 
C     8.2683     0.2009     7.2846 
C     8.6198     0.7672     8.4937 
C     7.8153     1.7537     9.0337 
C     6.6755     2.1464     8.3543 
F     4.2772    -0.6476     6.6303 
F     2.9069    -2.1457     4.9024 
F     2.1726    -1.1324     2.4905 
F     2.8697     1.4143     1.8433 
F     4.2639     2.9028     3.5072 
F     6.8705     0.0362     5.4616 
F     9.0404    -0.7408     6.7475 
F     9.7188     0.3748     9.1273 
F     8.1466     2.3129    10.1952 
F     5.9565     3.1144     8.9380 
N     2.3695     3.5201     5.8547 
N    -0.3635     0.5460     5.1929 
C    -2.5347    -0.3178     4.4709 
H    -3.3638    -0.1283     3.7894 
H    -2.9119    -0.1441     5.4813 
C    -0.5509    -1.8512     4.7401 
H    -0.3141    -2.8341     5.1464 
H     0.0938    -1.7119     3.8697 
C    -2.0273    -1.7577     4.3342 
H    -2.6360    -2.4154     4.9559 
H    -2.1434    -2.1014     3.3057 
O     5.0969     3.5742     5.9821 
H     5.7501     3.6743     5.2864 
H     3.2232     4.0871     5.8607 



























 
