56

B    4.2237     1.2444     4.2438 
C    1.9515     0.2076     3.9687 
C    1.3970    -0.5872     4.9463 
H    1.9699    -1.4441     5.2621 
C    0.2337    -0.1864     5.6346 
C   -0.4287     0.9861     5.1631 
H   -1.3653     1.3107     5.5848 
C    0.1168     1.7276     4.1621 
C    3.3209     0.0581     3.4584 
H    3.6898    -0.9431     3.6703 
H    3.3680     0.2303     2.3814 
C   -0.4617     3.0074     3.6564 
H    0.2220     3.8295     3.8788 
H   -0.6080     2.9670     2.5762 
H   -1.4162     3.2123     4.1332 
C    0.4078    -2.1259     7.1036 
H    0.5971    -2.7141     6.2061 
H    1.3742    -1.9334     7.5885 
C   -1.1975    -0.2873     7.6329 
H   -2.2028    -0.6570     7.4042 
H   -1.1979     0.7930     7.5126 
C    5.8154     1.2054     3.9252 
C    6.4868     0.3067     3.1137 
C    7.8529     0.3558     2.8816 
C    8.6102     1.3433     3.4808 
C    7.9874     2.2670     4.3015 
C    6.6217     2.1790     4.5013 
C    3.9180     1.0432     5.8405 
C    4.3850    -0.0687     6.5246 
C    3.9596    -0.4276     7.7929 
C    3.0121     0.3523     8.4313 
C    2.5151     1.4735     7.7930 
C    2.9826     1.7991     6.5293 
F    5.8270    -0.6865     2.4954 
F    8.4417    -0.5386     2.0895 
F    9.9211     1.4071     3.2706 
F    8.7071     3.2248     4.8824 
F    6.0717     3.1008     5.3022 
F    5.2467    -0.9037     5.9294 
F    4.4210    -1.5224     8.3944 
F    2.5774     0.0172     9.6465 
F    1.5740     2.2076     8.3914 
F    2.4158     2.8743     5.9581 
N    1.2794     1.3264     3.5980 
N   -0.2171    -0.8611     6.7048 
C   -0.8050    -0.6126     9.0685 
H   -1.4974    -0.1104     9.7440 
H    0.1791    -0.1769     9.2490 
C   -0.5166    -2.8947     8.0338 
H   -0.0775    -3.8706     8.2394 
H   -1.4562    -3.0768     7.5067 
C   -0.7745    -2.1246     9.3319 
H    0.0083    -2.3467    10.0583 
H   -1.7162    -2.4576     9.7699 
H    1.7700     1.9610     2.9797 
H    3.7950     2.3231     3.8937 

























 
