84

 C                 -3.71980400   -0.06305400   -0.45499200
 C                 -5.04807100   -0.06492100   -0.87289400
 H                 -5.80918700    0.24977800   -0.16920100
 C                 -5.39280800   -0.43991800   -2.15865600
 H                 -6.42933300   -0.43574600   -2.47020100
 C                 -4.39577800   -0.79074600   -3.05151400
 H                 -4.64178200   -1.04967500   -4.07430500
 C                 -3.05694900   -0.80510200   -2.67158200
 C                 -2.70957200   -0.47545600   -1.34502800
 P                 -0.99675000   -0.62334200   -0.68575600
 C                  0.03189300   -1.82432200   -1.61997700
 C                  0.72650200   -1.28876200    0.67553800
 C                  1.10271700   -2.14082200   -0.54394700
 C                 -0.78809100   -1.53238600    0.88111100
 H                 -1.18229000   -0.98148300    1.72931000
 H                 -1.11486600   -2.57304400    0.89557600
 H                  1.33780000   -1.49109700    1.55096200
 H                 -0.54684600   -2.70249100   -1.89063000
 H                  0.43199300   -1.38362500   -2.53187100
 B                  0.66035900    0.28738100    0.19565400
 H                  1.07917300   -3.20312100   -0.29597600
 H                  2.10224200   -1.90566100   -0.90736000
 F                  0.11592800    3.03125800   -0.39151500
 C                  0.12834100    2.72427200    0.91038500
 C                 -0.05717400    3.77049700    1.79264900
 F                 -0.27515400    5.00691000    1.35336700
 C                 -0.04069200    3.51720500    3.15297100
 F                 -0.24438600    4.50226300    4.01883700
 C                  0.15400100    2.22535700    3.59743700
 F                  0.16748800    1.97074900    4.90234900
 C                  0.32281100    1.20157800    2.67781500
 F                  0.50920200   -0.01461300    3.20001400
 C                  0.32106400    1.40317300    1.30375500
 F                  2.57911200    1.92319100   -4.16446200
 C                  2.77438100    1.51901900   -2.91214300
 C                  1.70284800    1.18276400   -2.10146700
 F                  0.48540300    1.29574200   -2.64310800
 C                  1.84207600    0.74846100   -0.79691300
 C                  3.14813700    0.68168300   -0.33230600
 F                  3.37833700    0.27014000    0.92014600
 C                  4.24930500    1.01397000   -1.10120200
 F                  5.47992400    0.93049100   -0.60787300
 C                  4.05831100    1.43487500   -2.40655100
 F                  5.09862800    1.75474100   -3.16454700
 C                 -2.06001900   -1.12088200   -3.73388400
 C                 -1.42705000   -0.06875700   -4.40407500
 C                 -1.80306800   -2.44774100   -4.09338300
 C                 -0.83820100   -2.70724900   -5.05843400
 C                 -0.45873500   -0.36910500   -5.35652600
 C                 -0.13969400   -1.68086000   -5.68592700
 H                 -0.61633600   -3.73679500   -5.31855200
 H                  0.05862100    0.44522300   -5.85241400
 C                 -3.46461200    0.44340800    0.92593300
 C                 -3.66366600   -0.38685100    2.03470500
 C                 -3.14610700    1.79417600    1.10120300
 C                 -3.02707800    2.29283200    2.39403300
 C                 -3.49202700    0.13925900    3.30883900
 C                 -3.18040100    1.48086700    3.50934400
 H                 -2.80659000    3.34612600    2.53109200
 H                 -3.61538800   -0.51084200    4.16860400
 C                 -4.06001500   -1.82726700    1.85501600
 H                 -3.88371100   -2.39494300    2.76764800
 H                 -3.50790400   -2.29659400    1.03977900
 H                 -5.12071900   -1.90879400    1.60564500
 C                 -2.96822800    2.70439500   -0.08329500
 H                 -3.89468100    2.78571800   -0.65642900
 H                 -2.20330300    2.32644900   -0.76419400
 H                 -2.66900700    3.70295000    0.23394600
 C                 -3.03855000    2.03806500    4.89852000
 H                 -4.01974100    2.19457700    5.35195200
 H                 -2.51843200    2.99604900    4.89006800
 H                 -2.48193700    1.35507800    5.54018100
 C                 -1.82932500    1.36036700   -4.15691800
 H                 -1.11820300    2.04624900   -4.61275300
 H                 -1.89392600    1.59376600   -3.09482200
 H                 -2.81626100    1.54778400   -4.58749400
 C                 -2.54641700   -3.58212300   -3.43944800
 H                 -3.57298200   -3.63796800   -3.80867800
 H                 -2.61410700   -3.45344700   -2.35707700
 H                 -2.06183200   -4.53511800   -3.64734900
 C                  0.90201900   -1.97905800   -6.72853100
 H                  1.69591800   -1.23268900   -6.71384900
 H                  0.45982200   -1.97098200   -7.72720200
 H                  1.34772700   -2.96078500   -6.57177000
