90

C       -4.172958000     -0.836152000     -0.295968000
C       -5.516073000     -1.190663000     -0.349085000
H       -6.170191000     -0.869727000      0.452915000
C       -6.016526000     -1.928407000     -1.409821000
H       -7.064672000     -2.195852000     -1.443219000
C       -5.167238000     -2.301652000     -2.436301000
H       -5.546132000     -2.857423000     -3.285843000
C       -3.816512000     -1.960248000     -2.414156000
C       -3.295874000     -1.247157000     -1.321434000
P       -1.535678000     -0.711889000     -1.257765000
C       -0.389422000     -1.950827000     -2.000249000
C        0.657932000     -1.200280000      0.183893000
C        0.923267000     -1.536390000     -1.317121000
C       -0.874713000     -1.144247000      0.408746000
H       -1.142294000     -0.389701000      1.143593000
H       -1.280353000     -2.101016000      0.742946000
H        1.058270000     -2.007891000      0.795260000
H       -0.686588000     -2.960676000     -1.709746000
H       -0.332297000     -1.898281000     -3.085432000
B        1.367059000      0.177796000      0.659221000
H        1.670981000     -2.323523000     -1.416745000
H        1.327145000     -0.666628000     -1.844810000
F        2.521383000      2.515870000      1.889107000
C        1.883041000      1.696708000      2.738766000
C        1.898708000      2.077881000      4.068810000
F        2.500802000      3.198138000      4.452438000
C        1.263632000      1.279503000      5.001835000
F        1.233932000      1.631119000      6.278894000
C        0.646119000      0.118250000      4.581841000
F        0.025999000     -0.653780000      5.469569000
C        0.666560000     -0.231178000      3.239977000
F        0.088557000     -1.400807000      2.955852000
C        1.262890000      0.548582000      2.254510000
F        5.299840000      1.843970000     -2.066982000
C        4.819347000      1.018768000     -1.142060000
C        3.483680000      1.069989000     -0.774865000
F        2.744040000      1.997479000     -1.402649000
C        2.923905000      0.239496000      0.181852000
C        3.808806000     -0.660993000      0.760177000
F        3.367907000     -1.507342000      1.702135000
C        5.148132000     -0.748551000      0.426208000
F        5.943728000     -1.634323000      1.015784000
C        5.658551000      0.101925000     -0.538302000
F        6.938958000      0.038297000     -0.878724000
C       -2.980629000     -2.350958000     -3.585263000
C       -2.646115000     -1.396350000     -4.550695000
C       -2.534240000     -3.671711000     -3.713310000
C       -1.730314000     -4.009839000     -4.794060000
C       -1.842202000     -1.775441000     -5.621824000
C       -1.369933000     -3.074273000     -5.758444000
H       -1.368405000     -5.028701000     -4.883032000
H       -1.578571000     -1.033996000     -6.368529000
C       -3.694863000     -0.008953000      0.850173000
C       -3.474145000     -0.597307000      2.098871000
C       -3.426794000      1.354126000      0.654637000
C       -2.864514000      2.082157000      1.695163000
C       -2.911085000      0.167854000      3.118251000
C       -2.576904000      1.501114000      2.928051000
H       -2.658103000      3.137986000      1.547742000
H       -2.703532000     -0.300237000      4.074884000
C       -3.783872000     -2.049888000      2.340837000
H       -3.299795000     -2.399133000      3.251566000
H       -3.452028000     -2.672091000      1.508468000
H       -4.859430000     -2.209710000      2.444213000
C       -3.764306000      2.034307000     -0.646454000
H       -4.807384000      1.859607000     -0.915767000
H       -3.155036000      1.657100000     -1.470390000
H       -3.606485000      3.109510000     -0.568387000
C       -1.929216000      2.312942000      4.014874000
H       -2.516378000      3.204273000      4.241764000
H       -0.934842000      2.646755000      3.705441000
H       -1.818983000      1.734130000      4.931613000
C       -3.123873000      0.027478000     -4.438541000
H       -3.007299000      0.546831000     -5.388563000
H       -2.549927000      0.575296000     -3.686084000
H       -4.172166000      0.073980000     -4.141274000
C       -2.886916000     -4.706721000     -2.679024000
H       -3.950862000     -4.949745000     -2.708177000
H       -2.677980000     -4.344896000     -1.669725000
H       -2.324161000     -5.624334000     -2.842778000
C       -0.521454000     -3.470959000     -6.934684000
H       -0.000914000     -2.610673000     -7.353807000
H       -1.138574000     -3.903630000     -7.725204000
H        0.220010000     -4.217703000     -6.650947000
C        0.266924000      2.663763000      0.185885000
H        1.162554000      3.241974000     -0.013664000
H       -0.553903000      2.995168000     -0.447442000
H       -0.025869000      2.732914000      1.232097000
O        0.530588000      1.292175000     -0.147239000
H       -0.214546000      0.912539000     -0.677890000


































 
