86

 C                 -4.15348600   -0.48961700   -0.22623300
 C                 -5.50131100   -0.69669100   -0.50825800
 H                 -6.22269800   -0.57049300    0.28955400
 C                 -5.92023000   -1.02409500   -1.78721900
 H                 -6.97340900   -1.17159400   -1.98888700
 C                 -4.99773100   -1.12407200   -2.81771000
 H                 -5.32407700   -1.33146800   -3.82915400
 C                 -3.64379200   -0.93135100   -2.57572500
 C                 -3.22039600   -0.65661800   -1.26204800
 P                 -1.44907000   -0.41055000   -0.98088600
 C                 -0.31830000   -1.61314000   -1.75194800
 C                  0.71561400   -0.68047700    0.33617800
 C                  0.76731600   -1.84614200   -0.66903900
 C                 -0.78360400   -0.55892600    0.68345900
 H                 -1.05266000    0.27306100    1.32544200
 H                 -1.19114200   -1.47847200    1.11637900
 H                  1.25149400   -0.94220300    1.25048600
 H                 -0.87079700   -2.51597600   -2.00688600
 H                  0.07664000   -1.18211300   -2.67095600
 B                  1.33037400    0.69310100   -0.35510800
 H                  0.56307600   -2.79684600   -0.16920500
 H                  1.74399800   -1.92345800   -1.14429200
 F                  0.57254300    3.12113400   -1.78079300
 C                  0.36873100    3.14535900   -0.45556500
 C                 -0.24621100    4.28790400    0.03343400
 F                 -0.59865600    5.27944700   -0.78273400
 C                 -0.51610300    4.38458300    1.38512700
 F                 -1.12905800    5.45671200    1.87766000
 C                 -0.15768100    3.34106600    2.21799700
 F                 -0.42899700    3.41772200    3.52138700
 C                  0.45092700    2.21854500    1.68308600
 F                  0.72201900    1.23597300    2.55315200
 C                  0.73786800    2.06147700    0.33294800
 F                  5.55184200   -0.42663300   -2.77085600
 C                  4.98648900    0.05519200   -1.66465100
 C                  3.60887000    0.13499800   -1.54570800
 F                  2.90634100   -0.30224700   -2.60527600
 C                  2.95777000    0.62528300   -0.42146100
 C                  3.80324200    1.03095900    0.60069400
 F                  3.29205000    1.51096400    1.74133300
 C                  5.18519000    0.97486900    0.52661500
 F                  5.94303300    1.38441700    1.54153000
 C                  5.78284400    0.48124000   -0.61824200
 F                  7.10691400    0.41267600   -0.71005900
 C                 -2.66485900   -0.97307300   -3.70005500
 C                 -2.06526400    0.20626300   -4.15874600
 C                 -2.31165400   -2.21026900   -4.26339800
 C                 -1.32911900   -2.24916300   -5.24037600
 C                 -1.07577900    0.11904400   -5.13681000
 C                 -0.68392000   -1.09473000   -5.67914500
 H                 -1.04366100   -3.20691700   -5.66166400
 H                 -0.60049700    1.03254400   -5.47806400
 C                 -3.76022200   -0.03455600    1.13847300
 C                 -3.67562200   -0.95870600    2.18714500
 C                 -3.46003000    1.31457400    1.35900400
 C                 -3.05906500    1.71464000    2.62995900
 C                 -3.24762900   -0.52305600    3.43404200
 C                 -2.92361100    0.80930300    3.67443000
 H                 -2.83697200    2.76189100    2.80512300
 H                 -3.15909200   -1.24268800    4.24060800
 C                 -3.99524700   -2.41192400    1.95931700
 H                 -3.77918400   -2.99913800    2.84992800
 H                 -3.41367000   -2.82085600    1.12881700
 H                 -5.04679300   -2.55443800    1.70386100
 C                 -3.50328800    2.33377300    0.25057100
 H                 -4.31305200    2.14362100   -0.45428900
 H                 -2.56316000    2.33774600   -0.31313600
 H                 -3.62543600    3.33665400    0.65843000
 C                 -2.41102200    1.25156600    5.01523900
 H                 -2.81210100    0.63086500    5.81587900
 H                 -2.67019500    2.29094500    5.21222700
 H                 -1.32178700    1.17743600    5.04198200
 C                 -2.46309500    1.57834400   -3.67334800
 H                 -2.94616800    2.12871200   -4.48292400
 H                 -1.58461100    2.15427500   -3.37411900
 H                 -3.16108200    1.54798400   -2.83836300
 C                 -2.95378900   -3.48821000   -3.79198100
 H                 -3.99706300   -3.55009100   -4.10706700
 H                 -2.95334800   -3.55976800   -2.70185400
 H                 -2.42905100   -4.35267400   -4.19488000
 C                  0.42607300   -1.16910200   -6.68901100
 H                  0.48640100   -0.25403700   -7.27665400
 H                  0.28622100   -2.00969500   -7.36786200
 H                  1.38656600   -1.30259000   -6.18647900
 H                 -1.16900700    0.86597300   -1.46034000
 H                  0.96592700    0.72901300   -1.50866600