67

N        1.854944000      8.541654000      2.223833000
B        4.213672000     10.499533000      2.937310000
C        3.171530000      8.390336000      1.435280000
H        2.842551000      8.219437000      0.407748000
C        3.991695000      9.734678000      1.401364000
C        5.304345000      9.312512000      0.699338000
H        5.075959000      8.709359000     -0.186453000
H        5.963938000      8.723817000      1.334244000
H        5.847344000     10.186109000      0.349946000
C        3.332697000     10.689752000      0.384230000
H        3.967462000     11.567857000      0.259984000
H        2.348989000     11.053877000      0.668023000
H        3.244527000     10.206370000     -0.595928000
C        1.489890000      7.502086000      3.244480000
H        0.711976000      7.975224000      3.850078000
H        2.357067000      7.350097000      3.876763000
C        0.965537000      6.213879000      2.637987000
H        1.765826000      5.704310000      2.099405000
H        0.667101000      5.559873000      3.458533000
C       -0.208888000      6.486672000      1.704291000
H       -1.059872000      6.862059000      2.281502000
H       -0.532131000      5.566059000      1.218413000
C        0.192682000      7.526751000      0.665093000
H       -0.648263000      7.786707000      0.021176000
H        0.972723000      7.118059000      0.016063000
C        0.686084000      8.801716000      1.328768000
H        0.988564000      9.547536000      0.600613000
H       -0.095336000      9.235687000      1.955230000
C        3.961012000      7.155349000      1.819396000
C        4.627361000      7.030700000      3.035471000
H        4.547694000      7.823780000      3.764243000
C        5.393467000      5.907152000      3.308136000
H        5.910677000      5.835896000      4.256594000
C        5.510783000      4.891531000      2.367834000
H        6.114425000      4.018820000      2.580105000
C        4.858746000      5.009161000      1.149361000
H        4.951398000      4.230304000      0.403681000
C        4.092772000      6.135501000      0.880711000
H        3.597748000      6.226521000     -0.080517000
C        3.601291000     12.079236000      3.013442000
C        2.234571000     12.289031000      2.870165000
F        1.400576000     11.240399000      2.645297000
C        1.585519000     13.504556000      2.968223000
F        0.268082000     13.591515000      2.794681000
C        2.322001000     14.634127000      3.266761000
F        1.734191000     15.818243000      3.370487000
C        3.676700000     14.493371000      3.482354000
F        4.399995000     15.556453000      3.816713000
C        4.275519000     13.243943000      3.373423000
F        5.572366000     13.242930000      3.695850000
C        5.830867000     10.488504000      3.304813000
C        6.719026000     11.210158000      2.515280000
F        6.238071000     11.998109000      1.538441000
C        8.090192000     11.192287000      2.657966000
F        8.874273000     11.910325000      1.859236000
C        8.653907000     10.410432000      3.653160000
F        9.971129000     10.370345000      3.812566000
C        7.823653000      9.680173000      4.475479000
F        8.343852000      8.926095000      5.441774000
C        6.447108000      9.735474000      4.290814000
F        5.740718000      8.991726000      5.162812000
C        3.254979000     10.263639000      5.219000000
H        4.125946000     10.844956000      5.534252000
H        3.123482000      9.439277000      5.922272000
H        2.375734000     10.915860000      5.268560000
O        3.420684000      9.734755000      3.925436000
H        2.048809000      9.367692000      2.809124000

































 
