65

N        2.017221000      8.123226000      2.782007000
B        3.799714000     10.627037000      2.579653000
C        3.060825000      8.177238000      1.635220000
H        2.507424000      7.808208000      0.772032000
C        3.538327000      9.634280000      1.238925000
C        4.694548000      9.375222000      0.256887000
H        4.377933000      8.672269000     -0.523822000
H        5.576030000      8.953957000      0.737666000
H        4.987652000     10.297644000     -0.230316000
C        2.406763000     10.285952000      0.396906000
H        2.839596000     10.928642000     -0.363594000
H        1.739245000     10.913186000      0.987985000
H        1.803724000      9.541122000     -0.133071000
C        1.833060000      6.752943000      3.367431000
H        1.212138000      6.898931000      4.254799000
H        2.805155000      6.389835000      3.688600000
C        1.150549000      5.781384000      2.418733000
H        1.786708000      5.597428000      1.552346000
H        1.052830000      4.828778000      2.941323000
C       -0.211080000      6.303531000      1.975378000
H       -0.884083000      6.342390000      2.837566000
H       -0.661234000      5.628127000      1.248017000
C       -0.060192000      7.703914000      1.392550000
H       -1.035081000      8.149520000      1.189036000
H        0.463753000      7.664354000      0.435809000
C        0.656310000      8.620051000      2.368123000
H        0.774107000      9.627840000      1.999067000
H        0.084494000      8.674330000      3.297959000
C        4.172617000      7.154462000      1.841304000
C        5.155978000      7.223966000      2.828565000
H        5.182127000      8.044253000      3.527425000
C        6.156322000      6.266176000      2.909645000
H        6.906288000      6.349679000      3.685532000
C        6.210920000      5.223150000      1.996209000
H        6.997378000      4.482718000      2.057811000
C        5.257776000      5.152511000      0.992982000
H        5.295221000      4.359082000      0.258076000
C        4.254104000      6.108331000      0.923187000
H        3.529613000      6.050682000      0.118399000
C        3.686081000     12.267955000      2.335813000
C        3.967360000     12.993596000      1.186289000
F        4.381059000     12.392519000      0.061443000
C        3.868120000     14.374014000      1.091476000
F        4.139008000     14.992762000     -0.055383000
C        3.491854000     15.110089000      2.195339000
F        3.390093000     16.431855000      2.125545000
C        3.242039000     14.446508000      3.381136000
F        2.912182000     15.140860000      4.467492000
C        3.356874000     13.067634000      3.432397000
F        3.174540000     12.531773000      4.642482000
C        5.248480000     10.499402000      3.403774000
C        6.438605000     10.804271000      2.749340000
F        6.414252000     11.185703000      1.467736000
C        7.687805000     10.797412000      3.344319000
F        8.778299000     11.090138000      2.643439000
C        7.795016000     10.503128000      4.690771000
F        8.979879000     10.489294000      5.287781000
C        6.643303000     10.248074000      5.407110000
F        6.721247000      9.990554000      6.710166000
C        5.412158000     10.266697000      4.765974000
F        4.367754000     10.025808000      5.576259000
C        2.509443000      9.043448000      3.904168000
O        2.639931000     10.304079000      3.471353000
H        3.424336000      8.567445000      4.257078000
H        1.750890000      8.979148000      4.689191000


























