66

N        2.089029000      8.448693000      2.964726000
B        3.762758000     11.339279000      2.435390000
C        2.957058000      8.657545000      1.721324000
H        2.294485000      8.338565000      0.915758000
C        3.186208000     10.189421000      1.354085000
C        4.147761000     10.070589000      0.153672000
H        3.724738000      9.398322000     -0.601434000
H        5.109870000      9.657918000      0.450173000
H        4.332490000     11.019626000     -0.328310000
C        1.806998000     10.679774000      0.864937000
H        1.827809000     11.731956000      0.599493000
H        1.039835000     10.569989000      1.633015000
H        1.484858000     10.123350000     -0.022190000
C        2.628545000      7.676735000      4.133987000
H        2.002103000      7.986019000      4.974136000
H        3.633918000      8.026815000      4.335562000
C        2.582145000      6.165124000      3.965844000
H        3.303956000      5.844409000      3.213863000
H        2.895415000      5.727106000      4.914916000
C        1.188430000      5.682447000      3.580529000
H        0.492322000      5.852398000      4.407853000
H        1.201128000      4.610199000      3.385316000
C        0.704999000      6.448188000      2.354649000
H       -0.311974000      6.160969000      2.084528000
H        1.342810000      6.220002000      1.495765000
C        0.717497000      7.939597000      2.629799000
H        0.357348000      8.521217000      1.784953000
H        0.093143000      8.178699000      3.493325000
C        4.113097000      7.668636000      1.612181000
C        5.235490000      7.620480000      2.436994000
H        5.356785000      8.322749000      3.242625000
C        6.224412000      6.665529000      2.249922000
H        7.082314000      6.658112000      2.910548000
C        6.122930000      5.735020000      1.226176000
H        6.896777000      4.992809000      1.081800000
C        5.021829000      5.775143000      0.385108000
H        4.927774000      5.066014000     -0.426905000
C        4.035972000      6.731391000      0.580657000
H        3.187350000      6.753152000     -0.093865000
C        4.291438000     12.801335000      1.777867000
C        4.080273000     13.395324000      0.538005000
F        3.363252000     12.808975000     -0.436277000
C        4.549388000     14.652583000      0.176921000
F        4.307822000     15.128904000     -1.041574000
C        5.249739000     15.416288000      1.082793000
F        5.701192000     16.619586000      0.755760000
C        5.448975000     14.905916000      2.350718000
F        6.090847000     15.631796000      3.261214000
C        4.963995000     13.650236000      2.665481000
F        5.168315000     13.288634000      3.940174000
C        4.992015000     10.746579000      3.350897000
C        6.290934000     10.684088000      2.861144000
F        6.576198000     11.126194000      1.631418000
C        7.359290000     10.171527000      3.577590000
F        8.573450000     10.116620000      3.043513000
C        7.155509000      9.698656000      4.861630000
F        8.161781000      9.189321000      5.559490000
C        5.886040000      9.762825000      5.405193000
F        5.668414000      9.311940000      6.637189000
C        4.848319000     10.283977000      4.648706000
F        3.645124000     10.284469000      5.249619000
C        1.655645000     11.657178000      4.026916000
O        2.708996000     11.967779000      3.378117000
O        1.095894000     10.569642000      4.085472000
H        1.238750000     12.508868000      4.578244000
H        1.874364000      9.405010000      3.364641000
























