42

C   -2.5498    -1.7167    -0.3927 
C   -0.3325    -1.0520    -0.4756 
C   -0.8526     0.3472    -0.1014 
C   -2.1427     0.6786    -0.8396 
H   -1.0405     0.3636     0.9751 
H   -0.0992     1.1051    -0.3221 
H   -1.9422     0.9233    -1.8872 
H   -2.6388     1.5397    -0.3874 
N   -1.3412    -2.0808    -0.2140 
N   -3.0164    -0.4698    -0.7483 
N   -3.6948    -2.5347    -0.2832 
C   -4.4087    -0.4938    -0.8325 
H   -4.9731     0.3898    -1.0773 
C   -4.8301    -1.7303    -0.5544 
C   -6.1926    -2.3180    -0.4457 
H   -6.8922    -1.7137    -1.0241 
H   -6.5279    -2.2802     0.5954 
C   -6.1822    -3.7676    -0.9245 
H   -7.1870    -4.1948    -0.8434 
H   -5.9157    -3.7819    -1.9861 
C   -5.1844    -4.6403    -0.1470 
C   -5.7074    -4.9134     1.2746 
H   -6.6741    -5.4246     1.2265 
H   -5.0176    -5.5549     1.8267 
H   -5.8396    -3.9987     1.8559 
C   -5.0584    -5.9843    -0.8753 
H   -4.6408    -5.8602    -1.8773 
H   -4.4219    -6.6824    -0.3310 
H   -6.0448    -6.4466    -0.9811 
B   -3.7550    -3.9442    -0.0089 
C   -2.4784    -4.7402     0.4210 
H   -1.7916    -4.8157    -0.4282 
H   -1.9083    -4.2026     1.1795 
H   -2.7057    -5.7468     0.7721 
C    0.8884    -1.3787     0.3762 
H    1.2334    -2.3871     0.1466 
H    1.7008    -0.6738     0.1867 
H    0.6297    -1.3427     1.4354 
C    0.0497    -1.1038    -1.9585 
H    0.8054    -0.3503    -2.1944 
H    0.4512    -2.0891    -2.1959 
H   -0.8201    -0.9387    -2.5966 


















 
