46

C       -2.648140000     -1.589110000     -0.241016000
C       -0.405388000     -1.129011000     -0.949417000
C       -0.711829000      0.280665000     -0.415087000
C       -2.120038000      0.754231000     -0.755198000
H       -0.589582000      0.266449000      0.670165000
H        0.014328000      0.983008000     -0.825558000
H       -2.207682000      1.016971000     -1.812280000
H       -2.379983000      1.635356000     -0.167752000
N       -1.383116000     -2.047921000     -0.342440000
N       -3.042217000     -0.317074000     -0.437942000
N       -3.700730000     -2.341199000      0.020653000
C       -4.439067000     -0.290556000     -0.339660000
H       -4.994659000      0.618060000     -0.484256000
C       -4.830910000     -1.559279000     -0.070089000
C       -6.127647000     -2.287147000     -0.048794000
H       -6.928182000     -1.634736000     -0.397208000
H       -6.375099000     -2.598990000      0.969621000
C       -5.968421000     -3.522009000     -0.957738000
H       -6.948796000     -3.987070000     -1.107306000
H       -5.635420000     -3.167599000     -1.939063000
C       -4.977844000     -4.587112000     -0.430639000
C       -5.698263000     -5.387601000      0.663077000
H       -6.588556000     -5.877018000      0.253529000
H       -5.052014000     -6.164033000      1.075761000
H       -6.020599000     -4.762577000      1.499087000
C       -4.685816000     -5.552426000     -1.584540000
H       -4.180933000     -5.046303000     -2.408065000
H       -4.034535000     -6.365350000     -1.256409000
H       -5.614151000     -5.994505000     -1.964043000
B       -3.560744000     -3.922935000      0.120460000
C       -3.149951000     -4.294969000      1.644852000
H       -2.297174000     -3.712348000      2.008929000
H       -3.967880000     -4.107279000      2.345076000
H       -2.883809000     -5.352160000      1.739101000
C        0.996432000     -1.524377000     -0.496485000
H        1.262557000     -2.521476000     -0.846368000
H        1.727343000     -0.823185000     -0.901483000
H        1.061830000     -1.511759000      0.591965000
C       -0.506567000     -1.160017000     -2.478422000
H        0.164217000     -0.419775000     -2.918941000
H       -0.228168000     -2.139642000     -2.866294000
H       -1.524625000     -0.950827000     -2.810018000
C       -1.245957000     -3.538673000     -0.519019000
O       -2.428571000     -4.145012000     -0.834637000
H       -0.803698000     -3.930185000      0.403850000
H       -0.541453000     -3.691574000     -1.339492000












































